<?xml version='1.0' encoding='utf-8'?>
<edges xmlns:xsi="http://www.w3.org/2001/XMLSchema-instance" version="1.20" xsi:noNamespaceSchemaLocation="http://sumo.dlr.de/xsd/edges_file.xsd">
    <location netOffset="8989687.78,-4203182.81" convBoundary="2030.74,2510.12,2948.01,2729.96" origBoundary="-80.755739,35.288692,-80.708073,35.331715" projParameter="+proj=merc +a=6378137 +b=6378137 +lat_ts=0.0 +lon_0=0.0 +x_0=0.0 +y_0=0 +k=1.0 +units=m +nadgrids=@null +wktext +no_defs" />

    <edge id="-1058666186#0" from="9727779405" to="9727779401" priority="1" type="highway.service" numLanes="1" speed="5.56" shape="2363.94,2623.01 2365.45,2615.20 2366.20,2593.26 2365.78,2565.64 2341.41,2565.94" allow="pedestrian passenger delivery bicycle">
        <lane index="0" allow="pedestrian passenger delivery bicycle" speed="5.56" shape="2362.85,2620.21 2363.86,2615.02 2364.60,2593.24 2364.20,2567.26 2341.43,2567.54">
            <param key="origId" value="1058666186" />
        </lane>
    </edge>
    <edge id="-1058666186#1" from="9727779406" to="9727779405" priority="1" type="highway.service" numLanes="1" speed="5.56" allow="pedestrian passenger delivery bicycle">
        <lane index="0" allow="pedestrian passenger delivery bicycle" speed="5.56" shape="2361.62,2625.41 2361.68,2625.20">
            <param key="origId" value="1058666186" />
        </lane>
    </edge>
    <edge id="-1060131306#0" from="cluster_172228464_482708521_9687148201_9687148202_#5more" to="J5" name="Phillips Road" priority="10" type="highway.tertiary" numLanes="1" speed="8.94" shape="2128.61,2626.12 2116.64,2625.77 2104.84,2626.00 2095.21,2626.44 2043.20,2630.26 2032.42,2630.98 2031.96,2630.97" disallow="pedestrian tram rail_urban rail rail_electric rail_fast ship cable_car subway">
        <lane index="0" disallow="pedestrian tram rail_urban rail rail_electric rail_fast ship cable_car subway" speed="8.94" shape="2125.57,2627.63 2116.63,2627.37 2104.89,2627.60 2095.31,2628.04 2043.32,2631.86 2032.52,2632.58 2031.93,2632.57">
            <param key="origId" value="1060131306 1054113139 1054113140" />
        </lane>
        <param key="origFrom" value="9687148206" />
    </edge>
    <edge id="-1060166170#0" from="cluster_9740411690_9740411697_9740411699_9740484028" to="9740411689" priority="1" type="highway.service" numLanes="1" speed="5.56" shape="2573.88,2617.82 2545.11,2617.82" allow="pedestrian passenger delivery bicycle">
        <lane index="0" allow="pedestrian passenger delivery bicycle" speed="5.56" shape="2568.85,2619.42 2545.11,2619.42">
            <param key="origId" value="1060166170" />
        </lane>
        <param key="origFrom" value="9740411697" />
    </edge>
    <edge id="-1060166170#3" from="9740411694" to="cluster_9740411690_9740411697_9740411699_9740484028" priority="1" type="highway.service" numLanes="1" speed="5.56" shape="2666.29,2620.89 2599.30,2621.32 2596.61,2621.23 2593.78,2620.87 2587.73,2619.11 2584.87,2618.54" allow="pedestrian passenger delivery bicycle">
        <lane index="0" allow="pedestrian passenger delivery bicycle" speed="5.56" shape="2663.79,2622.51 2599.28,2622.92 2596.48,2622.83 2593.45,2622.44 2592.41,2622.14">
            <param key="origId" value="1060166170" />
        </lane>
        <param key="origTo" value="9740411699" />
    </edge>
    <edge id="-1060166174#2" from="9740483935" to="J9" priority="1" type="highway.service" numLanes="1" speed="5.56" shape="2676.83,2630.48 2676.80,2625.29 2676.51,2616.41 2675.83,2611.31 2674.99,2605.66 2673.57,2598.02 2672.73,2592.65 2672.21,2587.27 2672.19,2585.78" allow="pedestrian passenger delivery bicycle">
        <lane index="0" allow="pedestrian passenger delivery bicycle" speed="5.56" shape="2675.18,2624.83 2674.91,2616.54 2674.25,2611.53 2673.41,2605.92 2671.99,2598.29 2671.14,2592.85 2670.61,2587.36 2670.59,2585.80">
            <param key="origId" value="1060166174" />
        </lane>
        <param key="origTo" value="9740483918" />
    </edge>
    <edge id="-1060166174#3" from="9740483934" to="9740483935" priority="1" type="highway.service" numLanes="1" speed="5.56" shape="2676.76,2637.23 2676.86,2633.09 2676.83,2630.48" allow="pedestrian passenger delivery bicycle">
        <lane index="0" allow="pedestrian passenger delivery bicycle" speed="5.56" shape="2675.20,2635.50 2675.21,2635.30">
            <param key="origId" value="1060166174" />
        </lane>
    </edge>
    <edge id="-1060166190#2" from="9740484032" to="9740484035" priority="1" type="highway.service" numLanes="1" speed="5.56" allow="pedestrian passenger delivery bicycle">
        <lane index="0" allow="pedestrian passenger delivery bicycle" speed="5.56" shape="2519.69,2623.48 2519.89,2607.28">
            <param key="origId" value="1060166190" />
        </lane>
    </edge>
    <edge id="-1060166190#3" from="9740484033" to="9740484032" priority="1" type="highway.service" numLanes="1" speed="5.56" allow="pedestrian passenger delivery bicycle">
        <lane index="0" allow="pedestrian passenger delivery bicycle" speed="5.56" shape="2519.55,2635.68 2519.63,2628.57">
            <param key="origId" value="1060166190" />
        </lane>
    </edge>
    <edge id="-1060166190#4" from="9740484031" to="9740484033" priority="1" type="highway.service" numLanes="1" speed="5.56" allow="pedestrian passenger delivery bicycle">
        <lane index="0" allow="pedestrian passenger delivery bicycle" speed="5.56" shape="2519.49,2640.62 2519.49,2640.42">
            <param key="origId" value="1060166190" />
        </lane>
    </edge>
    <edge id="-16666012#11" from="9740155241" to="cluster_9740157181_9740483933" name="Craver Road" priority="10" type="highway.tertiary" numLanes="1" speed="8.94" shape="2752.25,2646.79 2727.82,2647.16 2689.61,2647.24 2682.42,2647.24" disallow="pedestrian tram rail_urban rail rail_electric rail_fast ship cable_car subway">
        <lane index="0" disallow="pedestrian tram rail_urban rail rail_electric rail_fast ship cable_car subway" speed="8.94" shape="2746.68,2648.47 2727.83,2648.76 2689.61,2648.84 2687.58,2648.84">
            <param key="origId" value="16666012" />
        </lane>
        <param key="origTo" value="9740157181" />
    </edge>
    <edge id="-16666012#12" from="9740157194" to="9740155241" name="Craver Road" priority="10" type="highway.tertiary" numLanes="1" speed="8.94" shape="2786.37,2645.51 2772.88,2646.08 2752.25,2646.79" disallow="pedestrian tram rail_urban rail rail_electric rail_fast ship cable_car subway">
        <lane index="0" disallow="pedestrian tram rail_urban rail rail_electric rail_fast ship cable_car subway" speed="8.94" shape="2783.87,2647.22 2772.94,2647.68 2757.97,2648.19">
            <param key="origId" value="16666012" />
        </lane>
    </edge>
    <edge id="-16666012#13" from="9740157209" to="9740157194" name="Craver Road" priority="10" type="highway.tertiary" numLanes="1" speed="8.94" shape="2829.85,2645.06 2819.10,2644.65 2804.63,2644.81 2791.00,2645.32 2786.37,2645.51" disallow="pedestrian tram rail_urban rail rail_electric rail_fast ship cable_car subway">
        <lane index="0" disallow="pedestrian tram rail_urban rail rail_electric rail_fast ship cable_car subway" speed="8.94" shape="2827.23,2646.56 2819.08,2646.25 2804.67,2646.41 2791.06,2646.92 2789.00,2647.00">
            <param key="origId" value="16666012" />
        </lane>
    </edge>
    <edge id="-16666012#14" from="9740484518" to="9740157209" name="Craver Road" priority="10" type="highway.tertiary" numLanes="1" speed="8.94" shape="2844.16,2645.58 2832.84,2645.18 2829.85,2645.06" disallow="pedestrian tram rail_urban rail rail_electric rail_fast ship cable_car subway">
        <lane index="0" disallow="pedestrian tram rail_urban rail rail_electric rail_fast ship cable_car subway" speed="8.94" shape="2838.37,2646.98 2832.78,2646.78 2832.34,2646.76">
            <param key="origId" value="16666012" />
        </lane>
    </edge>
    <edge id="-16666012#15" from="9740484521" to="9740484518" name="Craver Road" priority="10" type="highway.tertiary" numLanes="1" speed="8.94" shape="2866.02,2646.57 2859.71,2646.26 2848.80,2645.74 2844.16,2645.58" disallow="pedestrian tram rail_urban rail rail_electric rail_fast ship cable_car subway">
        <lane index="0" disallow="pedestrian tram rail_urban rail rail_electric rail_fast ship cable_car subway" speed="8.94" shape="2860.39,2647.90 2859.63,2647.86 2849.57,2647.38">
            <param key="origId" value="16666012" />
        </lane>
    </edge>
    <edge id="-16666012#16" from="9740484527" to="9740484521" name="Craver Road" priority="10" type="highway.tertiary" numLanes="1" speed="8.94" shape="2894.96,2647.68 2875.35,2647.05 2866.02,2646.57" disallow="pedestrian tram rail_urban rail rail_electric rail_fast ship cable_car subway">
        <lane index="0" disallow="pedestrian tram rail_urban rail rail_electric rail_fast ship cable_car subway" speed="8.94" shape="2892.35,2649.20 2875.28,2648.65 2871.11,2648.43">
            <param key="origId" value="16666012" />
        </lane>
    </edge>
    <edge id="-16666012#17" from="cluster_172228408_9739966907_9739966910" to="9740484527" name="Craver Road" priority="10" type="highway.tertiary" numLanes="1" speed="8.94" shape="2930.83,2648.77 2914.27,2648.28 2897.95,2647.77 2894.96,2647.68" disallow="pedestrian tram rail_urban rail rail_electric rail_fast ship cable_car subway">
        <lane index="0" disallow="pedestrian tram rail_urban rail rail_electric rail_fast ship cable_car subway" speed="8.94" shape="2925.82,2650.22 2914.22,2649.88 2897.90,2649.37 2897.46,2649.36">
            <param key="origId" value="16666012" />
        </lane>
        <param key="origFrom" value="9739966907" />
    </edge>
    <edge id="-16666012#2" from="9727816850" to="cluster_172228464_482708521_9687148201_9687148202_#5more" name="Craver Road" priority="10" type="highway.tertiary" numLanes="1" speed="8.94" shape="2331.40,2628.38 2318.71,2627.98 2292.59,2627.47 2211.77,2627.57 2177.92,2627.09 2162.02,2626.66 2154.79,2626.51" disallow="pedestrian tram rail_urban rail rail_electric rail_fast ship cable_car subway">
        <lane index="0" disallow="pedestrian tram rail_urban rail rail_electric rail_fast ship cable_car subway" speed="8.94" shape="2328.83,2629.90 2318.67,2629.58 2292.58,2629.07 2211.76,2629.17 2177.89,2628.69 2161.98,2628.26 2157.33,2628.16">
            <param key="origId" value="16666012" />
        </lane>
        <param key="origTo" value="9687148201" />
    </edge>
    <edge id="-16666012#3" from="9727779406" to="9727816850" name="Craver Road" priority="10" type="highway.tertiary" numLanes="1" speed="8.94" shape="2361.22,2632.86 2352.05,2630.99 2341.51,2629.22 2333.80,2628.46 2331.40,2628.38" disallow="pedestrian tram rail_urban rail rail_electric rail_fast ship cable_car subway">
        <lane index="0" disallow="pedestrian tram rail_urban rail rail_electric rail_fast ship cable_car subway" speed="8.94" shape="2354.05,2633.03 2351.76,2632.56 2341.30,2630.81 2333.87,2630.07">
            <param key="origId" value="16666012" />
        </lane>
    </edge>
    <edge id="-16666012#4" from="9727816623" to="9727779406" name="Craver Road" priority="10" type="highway.tertiary" numLanes="1" speed="8.94" shape="2452.25,2645.55 2435.12,2644.38 2411.47,2642.68 2401.40,2641.51 2393.00,2640.27 2380.93,2637.60 2368.12,2634.57 2361.22,2632.86" disallow="pedestrian tram rail_urban rail rail_electric rail_fast ship cable_car subway">
        <lane index="0" disallow="pedestrian tram rail_urban rail rail_electric rail_fast ship cable_car subway" speed="8.94" shape="2449.34,2646.96 2435.01,2645.98 2411.32,2644.27 2401.19,2643.10 2392.71,2641.84 2380.57,2639.16 2367.91,2636.16">
            <param key="origId" value="16666012" />
        </lane>
    </edge>
    <edge id="-16666012#5" from="9740484031" to="9727816623" name="Craver Road" priority="10" type="highway.tertiary" numLanes="1" speed="8.94" shape="2521.01,2647.54 2498.61,2647.40 2482.58,2646.98 2466.01,2646.30 2452.25,2645.55" disallow="pedestrian tram rail_urban rail rail_electric rail_fast ship cable_car subway">
        <lane index="0" disallow="pedestrian tram rail_urban rail rail_electric rail_fast ship cable_car subway" speed="8.94" shape="2513.82,2649.10 2498.58,2649.00 2482.53,2648.58 2465.93,2647.90 2454.91,2647.30">
            <param key="origId" value="16666012" />
        </lane>
    </edge>
    <edge id="-16666012#6" from="9740157155" to="9740484031" name="Craver Road" priority="10" type="highway.tertiary" numLanes="1" speed="8.94" shape="2566.98,2647.35 2563.75,2647.35 2550.63,2647.31 2521.80,2647.54 2521.01,2647.54" disallow="pedestrian tram rail_urban rail rail_electric rail_fast ship cable_car subway">
        <lane index="0" disallow="pedestrian tram rail_urban rail rail_electric rail_fast ship cable_car subway" speed="8.94" shape="2564.47,2648.95 2563.75,2648.95 2550.63,2648.91 2528.25,2649.09">
            <param key="origId" value="16666012" />
        </lane>
    </edge>
    <edge id="-16666012#7" from="cluster_9740411700_9740411702" to="9740157155" name="Craver Road" priority="10" type="highway.tertiary" numLanes="1" speed="8.94" shape="2578.99,2647.38 2566.98,2647.35" disallow="pedestrian tram rail_urban rail rail_electric rail_fast ship cable_car subway">
        <lane index="0" disallow="pedestrian tram rail_urban rail rail_electric rail_fast ship cable_car subway" speed="8.94" shape="2573.40,2648.97 2569.50,2648.96">
            <param key="origId" value="16666012" />
        </lane>
        <param key="origFrom" value="9740411702" />
    </edge>
    <edge id="-16666012#9" from="cluster_9740157181_9740483933" to="cluster_9740411700_9740411702" name="Craver Road" priority="10" type="highway.tertiary" numLanes="1" speed="8.94" shape="2676.51,2647.24 2663.25,2647.24 2635.61,2647.34 2617.46,2647.28 2595.30,2647.42 2585.15,2647.39" disallow="pedestrian tram rail_urban rail rail_electric rail_fast ship cable_car subway">
        <lane index="0" disallow="pedestrian tram rail_urban rail rail_electric rail_fast ship cable_car subway" speed="8.94" shape="2669.39,2648.84 2663.25,2648.84 2635.61,2648.94 2617.46,2648.88 2595.31,2649.02 2590.70,2649.01">
            <param key="origId" value="16666012" />
        </lane>
        <param key="origFrom" value="9740483933" />
        <param key="origTo" value="9740411700" />
    </edge>
    <edge id="-357518696#4" from="cluster_172228408_9739966907_9739966910" to="9739966918" name="Mary Alexander Road" priority="10" type="highway.tertiary" numLanes="1" speed="11.18" shape="2940.03,2641.80 2940.18,2614.90 2939.34,2592.99 2938.31,2578.98" disallow="pedestrian tram rail_urban rail rail_electric rail_fast ship cable_car subway">
        <lane index="0" disallow="pedestrian tram rail_urban rail rail_electric rail_fast ship cable_car subway" speed="11.18" shape="2938.45,2638.62 2938.58,2614.93 2937.74,2593.08 2936.90,2581.60">
            <param key="origId" value="357518696" />
        </lane>
        <param key="origFrom" value="9739966910" />
    </edge>
    <edge id="-357518696#6" from="9655154879" to="cluster_172228408_9739966907_9739966910" name="Mary Alexander Road" priority="10" type="highway.tertiary" numLanes="1" speed="11.18" shape="2939.58,2710.96 2940.06,2679.62 2939.98,2649.03" disallow="pedestrian tram rail_urban rail rail_electric rail_fast ship cable_car subway">
        <lane index="0" disallow="pedestrian tram rail_urban rail rail_electric rail_fast ship cable_car subway" speed="11.18" shape="2938.02,2708.43 2938.46,2679.61 2938.40,2655.92">
            <param key="origId" value="357518696" />
        </lane>
        <param key="origTo" value="172228408" />
    </edge>
    <edge id="1050676976#10" from="9655154423" to="9655154520" priority="1" type="highway.footway" numLanes="1" speed="2.78" shape="2769.27,2664.96 2769.42,2663.87 2770.09,2662.49 2771.18,2660.92 2772.51,2659.50 2773.86,2658.19 2775.13,2657.27 2776.25,2656.56" spreadType="center" width="2.00" allow="pedestrian">
        <lane index="0" allow="pedestrian" width="2.00" speed="2.78" shape="2771.10,2661.03 2771.18,2660.92 2772.40,2659.62">
            <param key="origId" value="1050676976" />
        </lane>
    </edge>
    <edge id="1050676976#9.10" from="J10" to="9655154423" priority="1" type="highway.footway" numLanes="1" speed="2.78" shape="2762.03,2699.71 2762.13,2684.55 2762.32,2683.55 2763.17,2682.11 2767.06,2677.59 2768.58,2675.76 2769.14,2674.26 2769.33,2671.99 2769.27,2664.96" spreadType="center" width="2.00" allow="pedestrian">
        <lane index="0" allow="pedestrian" width="2.00" speed="2.78" shape="2762.03,2699.71 2762.13,2684.55 2762.32,2683.55 2763.17,2682.11 2767.06,2677.59 2768.58,2675.76 2769.14,2674.26 2769.33,2671.99 2769.28,2666.59">
            <param key="origId" value="1050676976" />
        </lane>
    </edge>
    <edge id="1050677005#0" from="9666242272" to="9666242294" priority="1" type="highway.footway" numLanes="1" speed="2.78" spreadType="center" width="2.00" allow="pedestrian">
        <lane index="0" allow="pedestrian" width="2.00" speed="2.78" shape="2156.93,2730.71 2156.94,2730.51">
            <param key="origId" value="1050677005" />
        </lane>
    </edge>
    <edge id="1050677005#1" from="9666242294" to="9666274693" priority="1" type="highway.footway" numLanes="1" speed="2.78" spreadType="center" width="2.00" allow="pedestrian">
        <lane index="0" allow="pedestrian" width="2.00" speed="2.78" shape="2156.97,2726.26 2157.20,2697.03">
            <param key="origId" value="1050677005" />
        </lane>
    </edge>
    <edge id="1050677005#10" from="9666274798" to="9666274635" priority="1" type="highway.footway" numLanes="1" speed="2.78" shape="2452.50,2655.23 2481.95,2656.18 2494.74,2656.42" spreadType="center" width="2.00" allow="pedestrian">
        <lane index="0" allow="pedestrian" width="2.00" speed="2.78" shape="2455.07,2655.31 2481.95,2656.18 2490.81,2656.35">
            <param key="origId" value="1050677005" />
        </lane>
    </edge>
    <edge id="1050677005#11" from="9666274635" to="9666274616" priority="1" type="highway.footway" numLanes="1" speed="2.78" shape="2494.74,2656.42 2517.70,2656.86 2521.21,2656.95 2525.24,2656.73 2529.54,2656.05 2533.26,2655.79 2544.72,2655.92" spreadType="center" width="2.00" allow="pedestrian">
        <lane index="0" allow="pedestrian" width="2.00" speed="2.78" shape="2496.65,2656.46 2517.70,2656.86 2521.21,2656.95 2525.24,2656.73 2529.54,2656.05 2533.26,2655.79 2544.57,2655.92">
            <param key="origId" value="1050677005" />
        </lane>
    </edge>
    <edge id="1050677005#12" from="9666274616" to="9666274886" priority="1" type="highway.footway" numLanes="1" speed="2.78" spreadType="center" width="2.00" allow="pedestrian">
        <lane index="0" allow="pedestrian" width="2.00" speed="2.78" shape="2544.87,2655.92 2564.50,2656.12">
            <param key="origId" value="1050677005" />
        </lane>
    </edge>
    <edge id="1050677005#13" from="9666274886" to="9655154530" priority="1" type="highway.footway" numLanes="1" speed="2.78" shape="2567.01,2656.15 2569.51,2656.18 2571.44,2656.18 2577.59,2657.89 2620.38,2657.84 2627.13,2654.99 2681.09,2655.14" spreadType="center" width="2.00" allow="pedestrian">
        <lane index="0" allow="pedestrian" width="2.00" speed="2.78" shape="2569.50,2656.18 2571.44,2656.18 2577.59,2657.89 2620.38,2657.84 2627.13,2654.99 2678.66,2655.13">
            <param key="origId" value="1050677005" />
        </lane>
    </edge>
    <edge id="1050677005#14" from="9655154530" to="9655154527" priority="1" type="highway.footway" numLanes="1" speed="2.78" shape="2681.09,2655.14 2697.26,2655.14 2709.87,2657.70 2719.87,2658.04 2734.51,2657.92 2762.18,2657.16" spreadType="center" width="2.00" allow="pedestrian">
        <lane index="0" allow="pedestrian" width="2.00" speed="2.78" shape="2684.43,2655.14 2697.26,2655.14 2709.87,2657.70 2719.87,2658.04 2734.51,2657.92 2760.47,2657.21">
            <param key="origId" value="1050677005" />
        </lane>
    </edge>
    <edge id="1050677005#15" from="9655154527" to="9655154520" priority="1" type="highway.footway" numLanes="1" speed="2.78" shape="2762.18,2657.16 2763.27,2657.13 2776.25,2656.56" spreadType="center" width="2.00" allow="pedestrian">
        <lane index="0" allow="pedestrian" width="2.00" speed="2.78" shape="2767.15,2656.96 2771.38,2656.77">
            <param key="origId" value="1050677005" />
        </lane>
    </edge>
    <edge id="1050677005#16" from="9655154520" to="10054309033" priority="1" type="highway.footway" numLanes="1" speed="2.78" shape="2776.25,2656.56 2776.76,2656.54 2784.30,2656.16" spreadType="center" width="2.00" allow="pedestrian">
        <lane index="0" allow="pedestrian" width="2.00" speed="2.78" shape="2778.02,2656.48 2782.50,2656.25">
            <param key="origId" value="1050677005" />
        </lane>
    </edge>
    <edge id="1050677005#17" from="10054309033" to="9740157195" priority="1" type="highway.footway" numLanes="1" speed="2.78" spreadType="center" width="2.00" allow="pedestrian">
        <lane index="0" allow="pedestrian" width="2.00" speed="2.78" shape="2786.54,2656.05 2786.74,2656.05">
            <param key="origId" value="1050677005" />
        </lane>
    </edge>
    <edge id="1050677005#18" from="9740157195" to="9740157210" priority="1" type="highway.footway" numLanes="1" speed="2.78" shape="2786.63,2656.05 2795.29,2655.63 2803.08,2655.36 2819.91,2655.56 2829.62,2655.93" spreadType="center" width="2.00" allow="pedestrian">
        <lane index="0" allow="pedestrian" width="2.00" speed="2.78" shape="2789.15,2655.93 2795.29,2655.63 2803.08,2655.36 2819.91,2655.56 2827.10,2655.83">
            <param key="origId" value="1050677005" />
        </lane>
    </edge>
    <edge id="1050677005#19" from="9740157210" to="10054309051" priority="1" type="highway.footway" numLanes="1" speed="2.78" spreadType="center" width="2.00" allow="pedestrian">
        <lane index="0" allow="pedestrian" width="2.00" speed="2.78" shape="2832.11,2656.00 2857.16,2656.74">
            <param key="origId" value="1050677005" />
        </lane>
    </edge>
    <edge id="1050677005#2" from="9666274693" to="9666242268" priority="1" type="highway.footway" numLanes="1" speed="2.78" shape="2157.20,2696.88 2157.20,2696.25 2156.75,2672.64 2156.54,2648.45 2156.19,2639.55" spreadType="center" width="2.00" allow="pedestrian">
        <lane index="0" allow="pedestrian" width="2.00" speed="2.78" shape="2157.20,2696.73 2157.20,2696.25 2156.75,2672.64 2156.54,2648.45 2156.29,2642.10">
            <param key="origId" value="1050677005" />
        </lane>
    </edge>
    <edge id="1050677005#20" from="10054309051" to="9740484524" priority="1" type="highway.footway" numLanes="1" speed="2.78" shape="2859.91,2656.82 2864.54,2656.95 2894.87,2657.61" spreadType="center" width="2.00" allow="pedestrian">
        <lane index="0" allow="pedestrian" width="2.00" speed="2.78" shape="2862.21,2656.88 2864.54,2656.95 2892.35,2657.56">
            <param key="origId" value="1050677005" />
        </lane>
    </edge>
    <edge id="1050677005#3" from="9666242268" to="9666274719" priority="1" type="highway.footway" numLanes="1" speed="2.78" spreadType="center" width="2.00" allow="pedestrian">
        <lane index="0" allow="pedestrian" width="2.00" speed="2.78" shape="2158.74,2639.58 2203.24,2640.13">
            <param key="origId" value="1050677005" />
        </lane>
    </edge>
    <edge id="1050677005#4" from="9666274719" to="9666274722" priority="1" type="highway.footway" numLanes="1" speed="2.78" shape="2204.95,2640.15 2207.81,2640.19 2216.35,2640.35 2221.02,2640.35 2232.17,2639.63 2260.29,2638.43 2263.78,2638.25" spreadType="center" width="2.00" allow="pedestrian">
        <lane index="0" allow="pedestrian" width="2.00" speed="2.78" shape="2211.17,2640.25 2216.35,2640.35 2221.02,2640.35 2232.17,2639.63 2260.29,2638.43 2261.23,2638.38">
            <param key="origId" value="1050677005" />
        </lane>
    </edge>
    <edge id="1050677005#5" from="9666274722" to="9666274721" priority="1" type="highway.footway" numLanes="1" speed="2.78" shape="2263.78,2638.25 2268.82,2638.01 2298.02,2638.35 2303.07,2638.43" spreadType="center" width="2.00" allow="pedestrian">
        <lane index="0" allow="pedestrian" width="2.00" speed="2.78" shape="2266.23,2638.13 2268.82,2638.01 2298.02,2638.35 2300.10,2638.38">
            <param key="origId" value="1050677005" />
        </lane>
    </edge>
    <edge id="1050677005#6" from="9666274721" to="9727816851" priority="1" type="highway.footway" numLanes="1" speed="2.78" shape="2303.07,2638.43 2326.31,2638.85 2331.21,2639.04" spreadType="center" width="2.00" allow="pedestrian">
        <lane index="0" allow="pedestrian" width="2.00" speed="2.78" shape="2305.25,2638.47 2326.31,2638.85 2328.68,2638.94">
            <param key="origId" value="1050677005" />
        </lane>
    </edge>
    <edge id="1050677005#7" from="9727816851" to="9666274744" priority="1" type="highway.footway" numLanes="1" speed="2.78" shape="2331.21,2639.04 2335.62,2639.21 2341.62,2639.71 2347.54,2640.61 2358.77,2643.05 2370.17,2646.01 2378.84,2648.03" spreadType="center" width="2.00" allow="pedestrian">
        <lane index="0" allow="pedestrian" width="2.00" speed="2.78" shape="2333.68,2639.14 2335.62,2639.21 2341.62,2639.71 2347.54,2640.61 2358.77,2643.05 2370.17,2646.01 2376.92,2647.58">
            <param key="origId" value="1050677005" />
        </lane>
    </edge>
    <edge id="1050677005#8" from="9666274744" to="9666274574" priority="1" type="highway.footway" numLanes="1" speed="2.78" shape="2378.84,2648.03 2381.58,2648.67 2390.92,2650.17 2401.38,2651.85 2410.43,2652.87 2434.57,2654.63 2440.99,2654.84" spreadType="center" width="2.00" allow="pedestrian">
        <lane index="0" allow="pedestrian" width="2.00" speed="2.78" shape="2382.37,2648.80 2390.92,2650.17 2401.38,2651.85 2410.43,2652.87 2434.26,2654.61">
            <param key="origId" value="1050677005" />
        </lane>
    </edge>
    <edge id="1050677005#9" from="9666274574" to="9666274798" priority="1" type="highway.footway" numLanes="1" speed="2.78" spreadType="center" width="2.00" allow="pedestrian">
        <lane index="0" allow="pedestrian" width="2.00" speed="2.78" shape="2442.67,2654.90 2449.93,2655.14">
            <param key="origId" value="1050677005" />
        </lane>
    </edge>
    <edge id="1050677006" from="9655154423" to="9655154527" priority="1" type="highway.footway" numLanes="1" speed="2.78" shape="2769.27,2664.96 2768.97,2663.87 2768.30,2662.56 2767.51,2661.40 2766.47,2660.09 2765.28,2658.97 2763.52,2657.70 2762.18,2657.16" spreadType="center" width="2.00" allow="pedestrian">
        <lane index="0" allow="pedestrian" width="2.00" speed="2.78" shape="2767.31,2661.14 2766.47,2660.09 2766.38,2660.00">
            <param key="origId" value="1050677006" />
        </lane>
    </edge>
    <edge id="1050677007#1" from="9655154530" to="9655154538" priority="1" type="highway.footway" numLanes="1" speed="2.78" shape="2681.09,2655.14 2681.30,2658.18 2678.01,2668.37 2673.98,2679.69 2669.44,2690.65 2666.16,2698.42 2665.27,2701.93 2664.59,2705.88 2664.52,2708.12" spreadType="center" width="2.00" allow="pedestrian">
        <lane index="0" allow="pedestrian" width="2.00" speed="2.78" shape="2681.27,2657.71 2681.30,2658.18 2678.01,2668.37 2673.98,2679.69 2669.44,2690.65 2666.16,2698.42 2665.27,2701.93 2664.59,2705.88 2664.52,2708.12">
            <param key="origId" value="1050677007" />
        </lane>
    </edge>
    <edge id="1050677043#3" from="9655154873" to="9655154879" priority="1" type="highway.footway" numLanes="1" speed="2.78" shape="2932.29,2710.84 2933.54,2710.86 2939.58,2710.96" spreadType="center" width="2.00" allow="pedestrian">
        <lane index="0" allow="pedestrian" width="2.00" speed="2.78" shape="2933.29,2710.86 2933.54,2710.86 2934.88,2710.88">
            <param key="origId" value="1050677043 1050677044" />
        </lane>
    </edge>
    <edge id="1050677044#1" from="9655154879" to="9655154897" priority="1" type="highway.footway" numLanes="1" speed="2.78" shape="2939.58,2710.96 2945.67,2711.05 2947.29,2711.08" spreadType="center" width="2.00" allow="pedestrian">
        <lane index="0" allow="pedestrian" width="2.00" speed="2.78" shape="2944.28,2711.03 2944.78,2711.04">
            <param key="origId" value="1050677044 1050677045" />
        </lane>
    </edge>
    <edge id="1051046791#0" from="9658685906" to="9739966911" priority="1" type="highway.footway" numLanes="1" speed="2.78" shape="2947.01,2592.28 2947.26,2627.22 2947.87,2642.94" spreadType="center" width="2.00" allow="pedestrian">
        <lane index="0" allow="pedestrian" width="2.00" speed="2.78" shape="2947.01,2592.28 2947.26,2627.22 2947.77,2640.42">
            <param key="origId" value="1051046791" />
        </lane>
    </edge>
    <edge id="1051046791#1" from="9739966911" to="9658681335" priority="1" type="highway.footway" numLanes="1" speed="2.78" shape="2947.87,2642.94 2947.90,2643.42 2948.01,2659.85" spreadType="center" width="2.00" allow="pedestrian">
        <lane index="0" allow="pedestrian" width="2.00" speed="2.78" shape="2947.91,2645.40 2948.01,2659.73">
            <param key="origId" value="1051046791" />
        </lane>
    </edge>
    <edge id="1051046791#2" from="9658681335" to="9655154897" priority="1" type="highway.footway" numLanes="1" speed="2.78" shape="2948.01,2659.85 2947.58,2674.88 2947.35,2702.58 2947.29,2711.08" spreadType="center" width="2.00" allow="pedestrian">
        <lane index="0" allow="pedestrian" width="2.00" speed="2.78" shape="2948.01,2659.97 2947.58,2674.88 2947.35,2702.58 2947.31,2708.57">
            <param key="origId" value="1051046791 1049682530" />
        </lane>
    </edge>
    <edge id="1051046792#2" from="9658681347" to="9658685906" priority="1" type="highway.footway" numLanes="1" speed="2.78" spreadType="center" width="2.00" allow="pedestrian">