<?xml version='1.0' encoding='utf-8'?>
<connections xmlns:xsi="http://www.w3.org/2001/XMLSchema-instance" version="1.20" xsi:noNamespaceSchemaLocation="http://sumo.dlr.de/xsd/connections_file.xsd">
    <connection from="-1058666186#0" to="1058666186#0" fromLane="0" toLane="0" />

    <connection from="-1058666186#1" to="-1058666186#0" fromLane="0" toLane="0" />
    <connection from="-1058666186#1" to="1058666186#1" fromLane="0" toLane="0" />

    <connection from="-1060131306#0" />

    <connection from="-1060166170#0" to="1060166170#0" fromLane="0" toLane="0" />

    <connection from="-1060166170#3" to="1060166172#0" fromLane="0" toLane="0" />
    <connection from="-1060166170#3" to="-1060166170#0" fromLane="0" toLane="0" />
    <connection from="-1060166170#3" to="1060166170#3" fromLane="0" toLane="0" />

    <connection from="-1060166174#2" />

    <connection from="-1060166174#3" to="-1060166174#2" fromLane="0" toLane="0" />
    <connection from="-1060166174#3" to="1060166175#0" fromLane="0" toLane="0" />
    <connection from="-1060166174#3" to="1060166174#3" fromLane="0" toLane="0" />

    <connection from="-1060166190#2" to="1060166190#2" fromLane="0" toLane="0" />

    <connection from="-1060166190#3" to="-1060166190#2" fromLane="0" toLane="0" />
    <connection from="-1060166190#3" to="1060166190#3" fromLane="0" toLane="0" />

    <connection from="-1060166190#4" to="-1060166190#3" fromLane="0" toLane="0" />
    <connection from="-1060166190#4" to="1060166190#4" fromLane="0" toLane="0" />

    <connection from="-16666012#12" to="-16666012#11" fromLane="0" toLane="0" />

    <connection from="-16666012#15" to="-16666012#14" fromLane="0" toLane="0" />
    <connection from="-16666012#15" to="1060166259#0" fromLane="0" toLane="0" />

    <connection from="-16666012#16" to="-16666012#15" fromLane="0" toLane="0" />

    <connection from="-16666012#2" to="452522817#1" fromLane="0" toLane="1" />
    <connection from="-16666012#2" to="-1060131306#0" fromLane="0" toLane="0" />
    <connection from="-16666012#2" to="773672649#1" fromLane="0" toLane="0" />
    <connection from="-16666012#2" to="16666012#2" fromLane="0" toLane="0" />

    <connection from="-16666012#4" to="-16666012#3" fromLane="0" toLane="0" />
    <connection from="-16666012#4" to="-1058666186#1" fromLane="0" toLane="0" />

    <connection from="-16666012#6" to="-16666012#5" fromLane="0" toLane="0" />
    <connection from="-16666012#6" to="-1060166190#4" fromLane="0" toLane="0" />

    <connection from="-16666012#9" to="-16666012#7" fromLane="0" toLane="0" />
    <connection from="-16666012#9" to="1060166173#0" fromLane="0" toLane="0" />

    <connection from="-357518696#4" />

    <connection from="-357518696#6" to="-16666012#17" fromLane="0" toLane="0" />
    <connection from="-357518696#6" to="-357518696#4" fromLane="0" toLane="0" />
    <connection from="-357518696#6" to="357518696#6" fromLane="0" toLane="0" />

    <connection from="1058666186#0" to="1058666186#1" fromLane="0" toLane="0" />
    <connection from="1058666186#0" to="-1058666186#0" fromLane="0" toLane="0" />

    <connection from="1058666186#1" to="16666012#4" fromLane="0" toLane="0" />
    <connection from="1058666186#1" to="-16666012#3" fromLane="0" toLane="0" />
    <connection from="1058666186#1" to="-1058666186#1" fromLane="0" toLane="0" />

    <connection from="1060131306#0" to="773672649#1" fromLane="0" toLane="0" />
    <connection from="1060131306#0" to="16666012#2" fromLane="0" toLane="0" />
    <connection from="1060131306#0" to="452522817#1" fromLane="0" toLane="1" />
    <connection from="1060131306#0" to="-1060131306#0" fromLane="0" toLane="0" />

    <connection from="1060166170#0" to="1060166170#3" fromLane="0" toLane="0" />
    <connection from="1060166170#0" to="1060166172#0" fromLane="0" toLane="0" />
    <connection from="1060166170#0" to="-1060166170#0" fromLane="0" toLane="0" />

    <connection from="1060166170#3" to="-1060166170#3" fromLane="0" toLane="0" />

    <connection from="1060166172#0" to="1060166172#1" fromLane="0" toLane="0" />

    <connection from="1060166172#1" to="16666012#9" fromLane="0" toLane="0" />
    <connection from="1060166172#1" to="-16666012#7" fromLane="0" toLane="0" />
    <connection from="1060166172#1" to="1060166173#0" fromLane="0" toLane="0" />

    <connection from="1060166173#0" to="1060166173#1" fromLane="0" toLane="0" />

    <connection from="1060166173#1" to="-1060166170#0" fromLane="0" toLane="0" />
    <connection from="1060166173#1" to="1060166170#3" fromLane="0" toLane="0" />
    <connection from="1060166173#1" to="1060166172#0" fromLane="0" toLane="0" />

    <connection from="1060166174#20" to="1060166175#0" fromLane="0" toLane="0" />
    <connection from="1060166174#20" to="1060166174#3" fromLane="0" toLane="0" />
    <connection from="1060166174#20" to="-1060166174#2" fromLane="0" toLane="0" />

    <connection from="1060166174#3" to="-1060166174#3" fromLane="0" toLane="0" />

    <connection from="1060166175#0" to="1060166175#1" fromLane="0" toLane="0" />

    <connection from="1060166175#1" to="16666012#12" fromLane="0" toLane="0" />
    <connection from="1060166175#1" to="-16666012#11" fromLane="0" toLane="0" />

    <connection from="1060166190#2" to="1060166190#3" fromLane="0" toLane="0" />
    <connection from="1060166190#2" to="-1060166190#2" fromLane="0" toLane="0" />

    <connection from="1060166190#3" to="1060166190#4" fromLane="0" toLane="0" />
    <connection from="1060166190#3" to="-1060166190#3" fromLane="0" toLane="0" />

    <connection from="1060166190#4" to="16666012#6" fromLane="0" toLane="0" />
    <connection from="1060166190#4" to="-16666012#5" fromLane="0" toLane="0" />
    <connection from="1060166190#4" to="-1060166190#4" fromLane="0" toLane="0" />

    <connection from="1060166259#0" to="1060166259#1" fromLane="0" toLane="0" />

    <connection from="1060166259#1" to="1060166259#2" fromLane="0" toLane="0" />

    <connection from="1060166259#2" to="16666012#16" fromLane="0" toLane="0" />
    <connection from="1060166259#2" to="-16666012#15" fromLane="0" toLane="0" />

    <connection from="1078803477#4.109" to="1078803477#5" fromLane="1" toLane="1" />

    <connection from="1078803477#5" to="1078803478#0" fromLane="1" toLane="1" />
    <connection from="1078803477#5" to="1078803478#0" fromLane="1" toLane="2" />

    <connection from="1078803478#0" to="16666012#2" fromLane="1" toLane="0" />
    <connection from="1078803478#0" to="452522817#1" fromLane="1" toLane="1" />
    <connection from="1078803478#0" to="-1060131306#0" fromLane="2" toLane="0" />
    <connection from="1078803478#0" to="773672649#1" fromLane="2" toLane="0" />

    <connection from="16666012#11" to="16666012#12" fromLane="0" toLane="0" />

    <connection from="16666012#14" to="1060166259#0" fromLane="0" toLane="0" />
    <connection from="16666012#14" to="16666012#15" fromLane="0" toLane="0" />

    <connection from="16666012#15" to="16666012#16" fromLane="0" toLane="0" />

    <connection from="16666012#17" to="-357518696#4" fromLane="0" toLane="0" />
    <connection from="16666012#17" to="357518696#6" fromLane="0" toLane="0" />
    <connection from="16666012#17" to="-16666012#17" fromLane="0" toLane="0" />

    <connection from="16666012#3" to="-1058666186#1" fromLane="0" toLane="0" />
    <connection from="16666012#3" to="16666012#4" fromLane="0" toLane="0" />

    <connection from="16666012#5" to="-1060166190#4" fromLane="0" toLane="0" />
    <connection from="16666012#5" to="16666012#6" fromLane="0" toLane="0" />

    <connection from="16666012#7" to="1060166173#0" fromLane="0" toLane="0" />
    <connection from="16666012#7" to="16666012#9" fromLane="0" toLane="0" />

    <connection from="357518696#4" to="357518696#6" fromLane="0" toLane="0" />
    <connection from="357518696#4" to="-16666012#17" fromLane="0" toLane="0" />
    <connection from="357518696#4" to="-357518696#4" fromLane="0" toLane="0" />

    <connection from="357518696#6" />

    <connection from="773672647#17" to="773672648#0" fromLane="0" toLane="0" />
    <connection from="773672647#17" to="773672648#0" fromLane="0" toLane="1" />
    <connection from="773672647#17" to="773672648#0" fromLane="0" toLane="2" />

    <connection from="773672648#0" to="-1060131306#0" fromLane="0" toLane="0" />
    <connection from="773672648#0" to="773672649#1" fromLane="1" toLane="0" />
    <connection from="773672648#0" to="16666012#2" fromLane="2" toLane="0" />
    <connection from="773672648#0" to="452522817#1" fromLane="2" toLane="1" />

    <connection from="773672649#1" to="773672649#2" fromLane="0" toLane="0" />

    <crossing node="9687187500" edges="1078803477#4.109" priority="1" width="4.00" outlineShape="2145.64,2542.61 2148.84,2542.63 2148.80,2546.63 2145.60,2546.61" />
    <crossing node="9687187501" edges="773672649#2" priority="1" width="4.00" outlineShape="2138.01,2542.41 2141.21,2542.59 2140.99,2546.58 2142.36,2545.71 2140.99,2546.58 2137.79,2546.41 2138.01,2542.41 2136.38,2543.45 2136.35,2545.45" />
    <crossing node="cluster_172228408_9739966907_9739966910" edges="357518696#6 -357518696#6" priority="1" width="4.00" outlineShape="2943.20,2655.91 2936.70,2655.92 2936.49,2654.76 2935.57,2653.79 2934.20,2653.09 2936.79,2651.92 2943.19,2651.91 2943.20,2655.91 2943.67,2651.90" />
    <crossing node="cluster_172228408_9739966907_9739966910" edges="-357518696#4 357518696#4" priority="1" width="4.00" outlineShape="2936.85,2638.62 2943.25,2638.65 2944.87,2642.66 2945.04,2641.82 2943.25,2638.65 2943.23,2642.65 2936.83,2642.62 2936.75,2638.63 2932.46,2639.21 2932.06,2641.17 2934.99,2642.06" />
    <crossing node="cluster_172228408_9739966907_9739966910" edges="-16666012#17 16666012#17" priority="1" width="4.00" outlineShape="2925.78,2651.82 2925.97,2645.42 2927.96,2645.20 2929.99,2644.54 2929.77,2652.12 2929.14,2652.03" />
    <crossing node="cluster_172228464_482708521_9687148201_9687148202_#5more" edges="452522817#1 773672648#0" priority="1" width="4.00" linkIndex="16" outlineShape="2149.37,2639.77 2132.10,2640.51 2131.79,2638.80 2131.10,2637.09 2130.77,2636.56 2149.20,2635.78" />
    <crossing node="cluster_172228464_482708521_9687148201_9687148202_#5more" edges="16666012#2 -16666012#2" priority="1" width="4.00" linkIndex="18" outlineShape="2157.43,2623.36 2157.30,2629.76 2153.30,2629.68 2153.46,2631.66 2153.30,2629.68 2153.43,2623.28 2157.43,2623.36 2156.09,2616.76 2154.09,2616.69 2153.63,2621.30" />
    <crossing node="cluster_172228464_482708521_9687148201_9687148202_#5more" edges="773672649#1 1078803478#0" priority="1" width="4.00" linkIndex="19" outlineShape="2135.21,2612.87 2148.64,2612.60 2148.72,2616.60 2135.29,2616.87 2135.13,2612.91 2130.64,2615.00 2130.91,2616.98 2135.29,2616.87" />
    <crossing node="cluster_172228464_482708521_9687148201_9687148202_#5more" edges="-1060131306#0 1060131306#0" priority="1" width="4.00" linkIndex="21" outlineShape="2125.53,2629.23 2125.71,2622.83 2129.71,2622.95 2129.52,2629.35 2125.53,2629.23 2125.95,2635.23 2127.92,2635.58 2129.52,2629.35" />
    </connections>