<?xml version='1.0' encoding='utf-8'?>
<nodes xmlns:xsi="http://www.w3.org/2001/XMLSchema-instance" version="1.20" xsi:noNamespaceSchemaLocation="http://sumo.dlr.de/xsd/nodes_file.xsd">
    <location netOffset="8989687.78,-4203182.81" convBoundary="2030.74,2510.12,2948.01,2729.96" origBoundary="-80.755739,35.288692,-80.708073,35.331715" projParameter="+proj=merc +a=6378137 +b=6378137 +lat_ts=0.0 +lon_0=0.0 +x_0=0.0 +y_0=0 +k=1.0 +units=m +nadgrids=@null +wktext +no_defs" />

    <node id="10054309033" x="2784.30" y="2656.16" type="dead_end" />
    <node id="10054309034" x="2807.14" y="2669.76" type="dead_end" />
    <node id="10054309035" x="2812.87" y="2673.06" type="dead_end" />
    <node id="10054309038" x="2817.56" y="2675.66" type="dead_end" />
    <node id="10054309041" x="2829.11" y="2666.50" type="dead_end" />
    <node id="10054309045" x="2843.61" y="2672.93" type="dead_end" />
    <node id="10054309051" x="2859.91" y="2656.82" type="dead_end" />
    <node id="10054309052" x="2843.26" y="2681.49" type="dead_end" />
    <node id="10054309082" x="2816.71" y="2715.80" type="dead_end" />
    <node id="10054309094" x="2864.52" y="2722.02" type="dead_end" />
    <node id="10054309101" x="2917.62" y="2677.28" type="dead_end" />
    <node id="10054309102" x="2916.96" y="2709.04" type="dead_end" />
    <node id="10054309103" x="2919.59" y="2708.98" type="dead_end" />
    <node id="10054309104" x="2922.69" y="2708.86" type="dead_end" />
    <node id="10054309105" x="2932.32" y="2708.74" type="dead_end" />
    <node id="10054309106" x="2914.81" y="2709.04" type="dead_end" />
    <node id="10054309112" x="2928.38" y="2690.21" type="dead_end" />
    <node id="10054309115" x="2917.17" y="2697.07" type="dead_end" />
    <node id="172668791" x="2145.73" y="2575.52" type="priority" />
    <node id="7221608314" x="2138.00" y="2719.77" type="priority" />
    <node id="9655154423" x="2769.27" y="2664.96" type="dead_end" />
    <node id="9655154520" x="2776.25" y="2656.56" type="dead_end" />
    <node id="9655154527" x="2762.18" y="2657.16" type="dead_end" />
    <node id="9655154530" x="2682.08" y="2655.11" type="dead_end" />
    <node id="9655154538" x="2664.52" y="2708.12" type="dead_end" />
    <node id="9655154873" x="2932.29" y="2710.84" type="dead_end" />
    <node id="9655154879" x="2939.58" y="2710.96" type="dead_end" />
    <node id="9655154897" x="2947.29" y="2711.08" type="dead_end" />
    <node id="9658681335" x="2948.01" y="2659.85" type="dead_end" />
    <node id="9658681347" x="2946.08" y="2578.35" type="dead_end" />
    <node id="9658685906" x="2947.01" y="2592.28" type="dead_end" />
    <node id="9666242268" x="2156.19" y="2639.55" type="dead_end" />
    <node id="9666242272" x="2156.94" y="2729.96" type="dead_end" />
    <node id="9666242290" x="2154.96" y="2728.73" type="dead_end" />
    <node id="9666242291" x="2134.77" y="2728.71" type="dead_end" />
    <node id="9666242292" x="2147.98" y="2728.72" type="dead_end" />
    <node id="9666242293" x="2138.36" y="2728.71" type="dead_end" />
    <node id="9666242294" x="2156.95" y="2728.77" type="dead_end" />
    <node id="9666274568" x="2421.52" y="2658.88" type="dead_end" />
    <node id="9666274574" x="2440.99" y="2654.84" type="dead_end" />
    <node id="9666274616" x="2544.72" y="2655.92" type="dead_end" />
    <node id="9666274634" x="2488.22" y="2662.64" type="dead_end" />
    <node id="9666274635" x="2494.74" y="2656.42" type="dead_end" />
    <node id="9666274693" x="2157.20" y="2696.88" type="dead_end" />
    <node id="9666274719" x="2204.95" y="2640.15" type="dead_end" />
    <node id="9666274721" x="2303.07" y="2638.43" type="dead_end" />
    <node id="9666274722" x="2263.78" y="2638.25" type="dead_end" />
    <node id="9666274728" x="2386.49" y="2664.10" type="dead_end" />
    <node id="9666274729" x="2405.51" y="2660.98" type="dead_end" />
    <node id="9666274737" x="2380.44" y="2651.51" type="dead_end" />
    <node id="9666274738" x="2381.81" y="2654.46" type="dead_end" />
    <node id="9666274742" x="2384.44" y="2664.44" type="dead_end" />
    <node id="9666274744" x="2378.84" y="2648.03" type="dead_end" />
    <node id="9666274798" x="2452.50" y="2655.23" type="dead_end" />
    <node id="9666274802" x="2453.09" y="2673.05" type="dead_end" />
    <node id="9666274808" x="2452.87" y="2666.46" type="dead_end" />
    <node id="9666274813" x="2475.26" y="2673.32" type="dead_end" />
    <node id="9666274886" x="2567.01" y="2656.15" type="dead_end" />
    <node id="9687148182" x="2124.62" y="2639.78" type="dead_end" />
    <node id="9687148197" x="2154.82" y="2637.19" type="dead_end" />
    <node id="9687148198" x="2155.12" y="2615.61" type="dead_end" />
    <node id="9687148199" x="2129.79" y="2616.13" type="dead_end" />
    <node id="9687148200" x="2126.71" y="2636.66" type="dead_end" />
    <node id="9687148211" x="2129.37" y="2612.59" type="dead_end" />
    <node id="9687148317" x="2128.14" y="2656.07" type="dead_end" />
    <node id="9687187495" x="2151.43" y="2544.67" type="dead_end" />
    <node id="9687187500" x="2147.22" y="2544.61" type="priority" />
    <node id="9687187501" x="2139.50" y="2544.50" type="priority" />
    <node id="9687187511" x="2103.99" y="2510.12" type="dead_end" />
    <node id="9687187512" x="2140.15" y="2510.72" type="dead_end" />
    <node id="9687187513" x="2128.85" y="2510.53" type="dead_end" />
    <node id="9687187518" x="2128.04" y="2578.94" type="dead_end" />
    <node id="9687187519" x="2102.76" y="2578.37" type="dead_end" />
    <node id="9687187522" x="2132.16" y="2582.70" type="dead_end" />
    <node id="9687187524" x="2127.77" y="2564.68" type="dead_end" />
    <node id="9687187526" x="2130.72" y="2544.36" type="dead_end" />
    <node id="9727779401" x="2341.41" y="2565.94" type="priority" />
    <node id="9727779405" x="2363.94" y="2623.01" type="priority" />
    <node id="9727779406" x="2361.22" y="2632.86" type="priority" />
    <node id="9727816623" x="2452.25" y="2645.55" type="dead_end" />
    <node id="9727816625" x="2452.03" y="2636.00" type="dead_end" />
    <node id="9727816629" x="2352.07" y="2619.84" type="dead_end" />
    <node id="9727816638" x="2155.65" y="2615.25" type="dead_end" />
    <node id="9727816658" x="2156.45" y="2544.69" type="dead_end" />
    <node id="9727816846" x="2331.20" y="2619.28" type="dead_end" />
    <node id="9727816850" x="2331.40" y="2628.38" type="dead_end" />
    <node id="9727816851" x="2331.21" y="2639.04" type="dead_end" />
    <node id="9727816862" x="2241.14" y="2617.93" type="dead_end" />
    <node id="9727816863" x="2156.26" y="2511.88" type="dead_end" />
    <node id="9727816864" x="2175.37" y="2512.00" type="dead_end" />
    <node id="9739966889" x="2930.06" y="2616.41" type="dead_end" />
    <node id="9739966895" x="2927.80" y="2635.90" type="dead_end" />
    <node id="9739966899" x="2909.19" y="2637.87" type="dead_end" />
    <node id="9739966904" x="2931.00" y="2638.76" type="dead_end" />
    <node id="9739966908" x="2930.98" y="2639.92" type="dead_end" />
    <node id="9739966911" x="2947.87" y="2642.94" type="dead_end" />
    <node id="9739966916" x="2930.66" y="2580.11" type="dead_end" />
    <node id="9739966918" x="2938.31" y="2578.98" type="dead_end" />
    <node id="9740155241" x="2752.25" y="2646.79" type="priority" />
    <node id="9740157079" x="2451.96" y="2624.13" type="dead_end" />
    <node id="9740157080" x="2413.81" y="2631.92" type="dead_end" />
    <node id="9740157087" x="2439.99" y="2619.25" type="dead_end" />
    <node id="9740157134" x="2464.20" y="2611.17" type="dead_end" />
    <node id="9740157136" x="2471.75" y="2624.20" type="dead_end" />
    <node id="9740157137" x="2473.76" y="2627.56" type="dead_end" />
    <node id="9740157142" x="2485.99" y="2637.54" type="dead_end" />
    <node id="9740157145" x="2518.53" y="2638.26" type="dead_end" />
    <node id="9740157154" x="2566.97" y="2639.86" type="dead_end" />
    <node id="9740157155" x="2566.98" y="2647.35" type="dead_end" />
    <node id="9740157156" x="2573.94" y="2613.87" type="dead_end" />
    <node id="9740157158" x="2573.91" y="2639.93" type="dead_end" />
    <node id="9740157159" x="2573.88" y="2630.08" type="dead_end" />
    <node id="9740157161" x="2528.50" y="2626.15" type="dead_end" />
    <node id="9740157169" x="2510.89" y="2638.07" type="dead_end" />
    <node id="9740157171" x="2541.25" y="2636.79" type="dead_end" />
    <node id="9740157172" x="2541.28" y="2629.89" type="dead_end" />
    <node id="9740157173" x="2531.94" y="2629.85" type="dead_end" />
    <node id="9740157174" x="2532.01" y="2637.41" type="dead_end" />
    <node id="9740157176" x="2542.30" y="2605.92" type="dead_end" />
    <node id="9740157180" x="2682.53" y="2636.96" type="dead_end" />
    <node id="9740157194" x="2786.37" y="2645.51" type="dead_end" />
    <node id="9740157195" x="2786.63" y="2656.05" type="dead_end" />
    <node id="9740157204" x="2786.38" y="2633.95" type="dead_end" />
    <node id="9740157209" x="2829.85" y="2645.06" type="dead_end" />
    <node id="9740157210" x="2829.62" y="2655.93" type="dead_end" />
    <node id="9740157211" x="2830.01" y="2637.34" type="dead_end" />
    <node id="9740411689" x="2545.11" y="2617.82" type="priority" />
    <node id="9740411694" x="2666.29" y="2620.89" type="priority" />
    <node id="9740411701" x="2585.07" y="2638.88" type="priority" />
    <node id="9740411703" x="2579.03" y="2639.53" type="priority" />
    <node id="9740483934" x="2676.76" y="2637.23" type="priority" />
    <node id="9740483935" x="2676.83" y="2630.48" type="right_before_left" />
    <node id="9740483946" x="2751.52" y="2635.10" type="priority" />
    <node id="9740483974" x="2666.81" y="2604.18" type="dead_end" />
    <node id="9740483978" x="2666.44" y="2636.22" type="dead_end" />
    <node id="9740484023" x="2666.64" y="2605.01" type="dead_end" />
    <node id="9740484029" x="2573.97" y="2609.77" type="dead_end" />
    <node id="9740484031" x="2521.01" y="2647.54" type="priority" />
    <node id="9740484032" x="2521.26" y="2626.06" type="priority" />
    <node id="9740484033" x="2521.12" y="2638.29" type="priority" />
    <node id="9740484035" x="2521.49" y="2607.30" type="priority" />
    <node id="9740484207" x="2786.44" y="2617.16" type="dead_end" />
    <node id="9740484420" x="2826.28" y="2637.23" type="dead_end" />
    <node id="9740484512" x="2870.43" y="2638.50" type="dead_end" />
    <node id="9740484514" x="2910.90" y="2582.25" type="dead_end" />
    <node id="9740484518" x="2844.16" y="2645.58" type="right_before_left" />
    <node id="9740484521" x="2866.02" y="2646.57" type="priority" />
    <node id="9740484522" x="2865.95" y="2638.33" type="priority" />
    <node id="9740484523" x="2844.10" y="2637.73" type="priority" />
    <node id="9740484524" x="2894.87" y="2657.61" type="dead_end" />
    <node id="9740484527" x="2894.96" y="2647.68" type="dead_end" />
    <node id="9740484528" x="2895.09" y="2639.97" type="dead_end" />
    <node id="9740484531" x="2928.21" y="2661.41" type="dead_end" />
    <node id="J0" x="2284.26" y="2693.28" type="dead_end" />
    <node id="J1" x="2442.40" y="2711.67" type="dead_end" />
    <node id="J10" x="2762.03" y="2699.71" type="dead_end" />
    <node id="J11" x="2827.07" y="2615.39" type="dead_end" />
    <node id="J12" x="2586.71" y="2564.36" type="dead_end" />
    <node id="J13" x="2586.71" y="2540.09" type="dead_end" />
    <node id="J14" x="2895.70" y="2620.67" type="dead_end" />
    <node id="J15" x="2891.60" y="2606.06" type="dead_end" />
    <node id="J16" x="2907.75" y="2614.57" type="dead_end" />
    <node id="J2" x="2260.65" y="2536.44" type="dead_end" />
    <node id="J3" x="2030.74" y="2638.97" type="dead_end" />
    <node id="J4" x="2031.48" y="2623.34" type="dead_end" />
    <node id="J5" x="2031.96" y="2630.97" type="dead_end" />
    <node id="J6" x="2439.53" y="2574.12" type="dead_end" />
    <node id="J7" x="2148.78" y="2510.60" type="dead_end" />
    <node id="J8" x="2464.49" y="2572.49" type="dead_end" />
    <node id="J9" x="2672.19" y="2585.78" type="dead_end" />
    <node id="cluster9666274718_9666274720_9666274727_9666274730" x="2285.15" y="2667.74" type="dead_end" />
    <node id="cluster9666274797_J8" x="2441.82" y="2691.05" type="dead_end" />
    <node id="cluster9727816848_9727816852" x="2261.21" y="2558.09" type="dead_end" />
    <node id="cluster_172228408_9739966907_9739966910" x="2936.95" y="2646.53" type="priority">
        <param key="origEdgeIds" value="-16666012#18 -357518696#5 16666012#18 357518696#5" />
        <param key="origId" value="172228408 9739966907 9739966910" />
    </node>
    <node id="cluster_172228464_482708521_9687148201_9687148202_#5more" x="2141.83" y="2626.26" type="traffic_light" tl="cluster_172228464_482708521_9687148201_9687148202_#5more">
        <param key="origEdgeIds" value="-1060131306#1 -1060131306#2 -16666012#0 -16666012#1 1054116929#3 1054116929#8 1060131306#1 1060131306#2 1078803478#1 16666012#0 16666012#1 452522817#0 773672648#1 773672649#0" />
        <param key="origId" value="172228464 482708521 9687148201 9687148202 9687148203 9687148204 9687148205 9687148206 9740155237" />
    </node>
    <node id="cluster_9740157181_9740483933" x="2679.47" y="2647.24" type="dead_end">
        <param key="origEdgeIds" value="-16666012#10 16666012#10" />
        <param key="origId" value="9740157181 9740483933" />
    </node>
    <node id="cluster_9740411690_9740411697_9740411699_9740484028" x="2582.60" y="2616.02" type="priority">
        <param key="origEdgeIds" value="-1060166170#1 -1060166170#2 -1060166171#1 1060166170#1 1060166170#2 1060166171#1" />
        <param key="origId" value="9740411690 9740411697 9740411699 9740484028" />
    </node>
    <node id="cluster_9740411700_9740411702" x="2582.07" y="2647.38" type="priority">
        <param key="origEdgeIds" value="-16666012#8 16666012#8" />
        <param key="origId" value="9740411700 9740411702" />
    </node>
</nodes>