<?xml version='1.0' encoding='utf-8'?>
<tlLogics xmlns:xsi="http://www.w3.org/2001/XMLSchema-instance" version="1.20" xsi:noNamespaceSchemaLocation="http://sumo.dlr.de/xsd/tllogic_file.xsd">
    <tlLogic id="cluster_172228464_482708521_9687148201_9687148202_#5more" type="static" programID="0" offset="0">
        <phase duration="32" state="rrrrgGggrrrrgGggrrGrrG" />
        <phase duration="5" state="rrrrgGggrrrrgGggrrrrrr" />
        <phase duration="4" state="rrrryyggrrrryyggrrrrrr" />
        <phase duration="6" state="rrrrrrGGrrrrrrGGrrrrrr" />
        <phase duration="4" state="rrrrrryyrrrrrryyrrrrrr" />
        <phase duration="1" state="rrrrrrrrrrrrrrrrrrrrrr" />
        <phase duration="31" state="gGggrrrrgGggrrrrGGrGGr" />
        <phase duration="5" state="gGggrrrrgGggrrrrrrrrrr" />
        <phase duration="4" state="yyyyrrrryyyyrrrrrrrrrr" />
        <phase duration="1" state="rrrrrrrrrrrrrrrrrrrrrr" />
    </tlLogic>
    <tlLogic id="9740157155_c0_mid" type="static" programID="0" offset="0">
		<phase duration="77" state="GGr" />
		<phase duration="3" state="yyr" />
		<phase duration="5" state="rrG" />
		<phase duration="5" state="rrr" />
	</tlLogic>
	<tlLogic id="9740484527_c0_mid" type="static" programID="0" offset="0">
		<phase duration="77" state="GGr" />
		<phase duration="3" state="yyr" />
		<phase duration="5" state="rrG" />
		<phase duration="5" state="rrr" />
	</tlLogic>
	<tlLogic id="9740157209_c0_mid" type="static" programID="0" offset="0">
		<phase duration="77" state="GGr" />
		<phase duration="3" state="yyr" />
		<phase duration="5" state="rrG" />
		<phase duration="5" state="rrr" />
	</tlLogic>
	<tlLogic id="cluster_9740157181_9740483933_c0_mid" type="static" programID="0" offset="0">
		<phase duration="77" state="GGr" />
		<phase duration="3" state="yyr" />
		<phase duration="5" state="rrG" />
		<phase duration="5" state="rrr" />
	</tlLogic>
	<tlLogic id="9740157194_c0_mid" type="static" programID="0" offset="0">
		<phase duration="77" state="GGr" />
		<phase duration="3" state="yyr" />
		<phase duration="5" state="rrG" />
		<phase duration="5" state="rrr" />
	</tlLogic>
	<tlLogic id="9727816850_c0_mid" type="static" programID="0" offset="0">
		<phase duration="77" state="GGr" />
		<phase duration="3" state="yyr" />
		<phase duration="5" state="rrG" />
		<phase duration="5" state="rrr" />
	</tlLogic>
	<tlLogic id="9727816623_c0_mid" type="static" programID="0" offset="0">
		<phase duration="77" state="GGr" />
		<phase duration="3" state="yyr" />
		<phase duration="5" state="rrG" />
		<phase duration="5" state="rrr" />
	</tlLogic>
	<connection from="-16666012#2_left5" to="452522817#1" fromLane="0" toLane="1" tl="cluster_172228464_482708521_9687148201_9687148202_#5more" linkIndex="0" />
	<connection from="-16666012#2_left5" to="-1060131306#0" fromLane="0" toLane="0" tl="cluster_172228464_482708521_9687148201_9687148202_#5more" linkIndex="1" />
	<connection from="-16666012#2_left5" to="773672649#1" fromLane="0" toLane="0" tl="cluster_172228464_482708521_9687148201_9687148202_#5more" linkIndex="2" />
	<connection from="-16666012#2_left5" to="16666012#2_left5" fromLane="0" toLane="0" tl="cluster_172228464_482708521_9687148201_9687148202_#5more" linkIndex="3" />
	<connection from="1060131306#0" to="773672649#1" fromLane="0" toLane="0" tl="cluster_172228464_482708521_9687148201_9687148202_#5more" linkIndex="8" />
	<connection from="1060131306#0" to="16666012#2_left5" fromLane="0" toLane="0" tl="cluster_172228464_482708521_9687148201_9687148202_#5more" linkIndex="9" />
	<connection from="1060131306#0" to="452522817#1" fromLane="0" toLane="1" tl="cluster_172228464_482708521_9687148201_9687148202_#5more" linkIndex="10" />
	<connection from="1060131306#0" to="-1060131306#0" fromLane="0" toLane="0" tl="cluster_172228464_482708521_9687148201_9687148202_#5more" linkIndex="11" />
	<connection from="1078803478#0" to="16666012#2_left5" fromLane="1" toLane="0" tl="cluster_172228464_482708521_9687148201_9687148202_#5more" linkIndex="4" />
	<connection from="1078803478#0" to="452522817#1" fromLane="1" toLane="1" tl="cluster_172228464_482708521_9687148201_9687148202_#5more" linkIndex="5" />
	<connection from="1078803478#0" to="-1060131306#0" fromLane="2" toLane="0" tl="cluster_172228464_482708521_9687148201_9687148202_#5more" linkIndex="6" />
	<connection from="1078803478#0" to="773672649#1" fromLane="2" toLane="0" tl="cluster_172228464_482708521_9687148201_9687148202_#5more" linkIndex="7" />
	<connection from="773672648#0" to="-1060131306#0" fromLane="0" toLane="0" tl="cluster_172228464_482708521_9687148201_9687148202_#5more" linkIndex="12" />
	<connection from="773672648#0" to="773672649#1" fromLane="1" toLane="0" tl="cluster_172228464_482708521_9687148201_9687148202_#5more" linkIndex="13" />
	<connection from="773672648#0" to="16666012#2_left5" fromLane="2" toLane="0" tl="cluster_172228464_482708521_9687148201_9687148202_#5more" linkIndex="14" />
	<connection from="773672648#0" to="452522817#1" fromLane="2" toLane="1" tl="cluster_172228464_482708521_9687148201_9687148202_#5more" linkIndex="15" />
	<connection from="-16666012#7_right0" to="-16666012#7_left0" fromLane="0" toLane="0" tl="9740157155_c0_mid" linkIndex="0" />
	<connection from="-16666012#17_right1" to="-16666012#17_left1" fromLane="0" toLane="0" tl="9740484527_c0_mid" linkIndex="0" />
	<connection from="-16666012#13_right2" to="-16666012#13_left2_right4" fromLane="0" toLane="0" tl="9740157209_c0_mid" linkIndex="0" />
	<connection from="-16666012#11_right3" to="-16666012#11_left3" fromLane="0" toLane="0" tl="cluster_9740157181_9740483933_c0_mid" linkIndex="0" />
	<connection from="-16666012#13_left2_right4" to="-16666012#13_left2_left4" fromLane="0" toLane="0" tl="9740157194_c0_mid" linkIndex="0" />
	<connection from="-16666012#2_right5" to="-16666012#2_left5" fromLane="0" toLane="0" tl="9727816850_c0_mid" linkIndex="0" />
	<connection from="-16666012#5_right6" to="-16666012#5_left6" fromLane="0" toLane="0" tl="9727816623_c0_mid" linkIndex="0" />
	<connection from="16666012#7_left0" to="16666012#7_right0" fromLane="0" toLane="0" tl="9740157155_c0_mid" linkIndex="1" />
	<connection from="16666012#17_left1" to="16666012#17_right1" fromLane="0" toLane="0" tl="9740484527_c0_mid" linkIndex="1" />
	<connection from="16666012#13_left2_right4" to="16666012#13_right2" fromLane="0" toLane="0" tl="9740157209_c0_mid" linkIndex="1" />
	<connection from="16666012#11_left3" to="16666012#11_right3" fromLane="0" toLane="0" tl="cluster_9740157181_9740483933_c0_mid" linkIndex="1" />
	<connection from="16666012#13_left2_left4" to="16666012#13_left2_right4" fromLane="0" toLane="0" tl="9740157194_c0_mid" linkIndex="1" />
	<connection from="16666012#2_left5" to="16666012#2_right5" fromLane="0" toLane="0" tl="9727816850_c0_mid" linkIndex="1" />
	<connection from="16666012#5_left6" to="16666012#5_right6" fromLane="0" toLane="0" tl="9727816623_c0_mid" linkIndex="1" />
	</tlLogics>