<?xml version="1.0" encoding="UTF-8"?>

<!-- generated on 2024-11-19 14:03:05 by Eclipse SUMO netedit Version 1.20.0
<configuration xmlns:xsi="http://www.w3.org/2001/XMLSchema-instance" xsi:noNamespaceSchemaLocation="http://sumo.dlr.de/xsd/neteditConfiguration.xsd">

    <input>
        <sumo-net-file value="/home/kurukshetra/original_craver_road.net.xml"/>
    </input>

    <output>
        <output-file value="/home/kurukshetra/original_craver_road.net.xml"/>
        <output.street-names value="true"/>
    </output>

    <processing>
        <geometry.min-radius.fix.railways value="false"/>
        <geometry.max-grade.fix value="false"/>
        <offset.disable-normalization value="true"/>
        <lefthand value="0"/>
    </processing>

    <junctions>
        <no-internal-links value="false"/>
        <no-turnarounds value="true"/>
        <junctions.corner-detail value="5"/>
        <junctions.limit-turn-speed value="5.50"/>
        <rectangular-lane-cut value="0"/>
    </junctions>

    <pedestrian>
        <walkingareas value="1"/>
    </pedestrian>

</configuration>
-->

<net version="1.20" junctionCornerDetail="5" walkingareas="true" limitTurnSpeed="5.50" xmlns:xsi="http://www.w3.org/2001/XMLSchema-instance" xsi:noNamespaceSchemaLocation="http://sumo.dlr.de/xsd/net_file.xsd">

    <location netOffset="8989687.78,-4203182.81" convBoundary="2030.74,2510.12,2948.01,2729.96" origBoundary="-80.755739,35.288692,-80.708073,35.331715" projParameter="+proj=merc +a=6378137 +b=6378137 +lat_ts=0.0 +lon_0=0.0 +x_0=0.0 +y_0=0 +k=1.0 +units=m +nadgrids=@null +wktext +no_defs"/>

    <type id="highway.footway" priority="1" numLanes="1" speed="2.78" allow="pedestrian" oneway="1" width="2.00"/>
    <type id="highway.service" priority="1" numLanes="1" speed="5.56" allow="pedestrian delivery bicycle" oneway="1"/>
    <type id="highway.steps" priority="1" numLanes="1" speed="1.39" allow="pedestrian" oneway="1" width="2.00"/>
    <type id="highway.tertiary" priority="10" numLanes="1" speed="13.89" disallow="pedestrian tram rail_urban rail rail_electric rail_fast ship" oneway="1" sidewalkWidth="-1.00"/>

    <edge id=":10054309033_w0" function="walkingarea">
        <lane id=":10054309033_w0_0" index="0" allow="pedestrian" speed="2.78" length="4.55" width="2.00" shape="2787.93,2659.49 2788.96,2657.77 2789.17,2656.93 2789.07,2654.93 2782.45,2655.25 2782.55,2657.25 2784.68,2657.43 2785.39,2657.75 2786.07,2658.21 2786.87,2658.79"/>
    </edge>
    <edge id=":10054309034_w0" function="walkingarea">
        <lane id=":10054309034_w0_0" index="0" allow="pedestrian" speed="2.78" length="0.29" width="2.00" shape="2806.77,2670.70 2807.76,2668.97 2807.53,2668.83 2806.50,2670.55"/>
    </edge>
    <edge id=":10054309035_w0" function="walkingarea">
        <lane id=":10054309035_w0_0" index="0" allow="pedestrian" speed="2.78" length="0.29" width="2.00" shape="2812.51,2674.00 2813.48,2672.25 2813.24,2672.12 2812.25,2673.86"/>
    </edge>
    <edge id=":10054309038_w0" function="walkingarea">
        <lane id=":10054309038_w0_0" index="0" allow="pedestrian" speed="2.78" length="4.01" width="2.00" shape="2819.63,2673.91 2817.86,2672.97 2817.33,2673.62 2817.01,2673.78 2816.65,2673.82 2816.27,2673.75 2815.85,2673.57 2814.88,2675.32 2815.75,2675.98 2816.04,2676.36 2816.23,2676.77 2816.32,2677.22 2816.30,2677.70 2818.29,2677.94 2818.53,2676.38 2818.68,2675.84 2818.89,2675.32 2819.20,2674.72"/>
    </edge>
    <edge id=":10054309041_w0" function="walkingarea">
        <lane id=":10054309041_w0_0" index="0" allow="pedestrian" speed="2.78" length="3.86" width="2.00" shape="2830.92,2668.18 2831.56,2666.28 2830.78,2665.85 2830.52,2665.54 2830.34,2665.18 2830.24,2664.76 2830.22,2664.28 2828.22,2664.18 2828.02,2665.05 2827.80,2665.39 2827.50,2665.65 2827.13,2665.86 2826.68,2665.99 2827.10,2667.95 2828.52,2667.69 2829.03,2667.68 2829.54,2667.75 2830.13,2667.92"/>
    </edge>
    <edge id=":10054309045_w0" function="walkingarea">
        <lane id=":10054309045_w0_0" index="0" allow="pedestrian" speed="2.78" length="3.95" width="2.00" shape="2846.07,2673.68 2845.86,2671.69 2844.23,2671.84 2843.65,2671.84 2843.07,2671.79 2842.38,2671.69 2841.45,2671.53 2841.10,2673.49 2841.91,2673.81 2842.19,2674.07 2842.38,2674.40 2842.49,2674.79 2842.51,2675.26 2844.51,2675.34 2844.71,2674.49 2844.93,2674.17 2845.23,2673.93 2845.61,2673.77"/>
    </edge>
    <edge id=":10054309051_w0" function="walkingarea">
        <lane id=":10054309051_w0_0" index="0" allow="pedestrian" speed="2.78" length="4.15" width="2.00" shape="2862.18,2657.88 2862.23,2655.88 2857.19,2655.74 2857.13,2657.74 2857.92,2657.92 2858.16,2658.13 2858.30,2658.42 2858.33,2658.79 2858.25,2659.24 2860.19,2659.73 2860.63,2658.69 2860.93,2658.33 2861.29,2658.07 2861.71,2657.92"/>
    </edge>
    <edge id=":10054309101_w0" function="walkingarea">
        <lane id=":10054309101_w0_0" index="0" allow="pedestrian" speed="2.78" length="4.76" width="2.00" shape="2919.59,2680.85 2921.05,2679.49 2919.61,2677.86 2919.11,2677.28 2918.60,2676.72 2917.94,2676.08 2917.02,2675.25 2915.54,2676.62 2916.13,2677.54 2916.32,2678.23 2916.46,2679.07 2916.53,2680.06 2916.53,2681.21 2918.53,2681.26 2918.66,2680.54 2918.81,2680.40 2919.02,2680.41 2919.27,2680.56"/>
    </edge>
    <edge id=":10054309102_w0" function="walkingarea">
        <lane id=":10054309102_w0_0" index="0" allow="pedestrian" speed="2.78" length="3.44" width="2.00" shape="2919.53,2709.98 2919.49,2707.98 2918.03,2706.52 2916.03,2706.46 2914.44,2708.04 2914.44,2710.04 2915.73,2711.52 2917.76,2711.57"/>
    </edge>
    <edge id=":10054309103_w0" function="walkingarea">
        <lane id=":10054309103_w0_0" index="0" allow="pedestrian" speed="2.78" length="1.36" width="2.00" shape="2919.77,2709.97 2919.69,2707.98 2919.42,2707.98 2919.47,2709.98"/>
    </edge>
    <edge id=":10054309104_w0" function="walkingarea">
        <lane id=":10054309104_w0_0" index="0" allow="pedestrian" speed="2.78" length="0.27" width="2.00" shape="2922.84,2709.86 2922.81,2707.86 2922.52,2707.87 2922.60,2709.86"/>
    </edge>
    <edge id=":10054309105_w0" function="walkingarea">
        <lane id=":10054309105_w0_0" index="0" allow="pedestrian" speed="2.78" length="3.60" width="2.00" shape="2933.36,2706.28 2931.36,2706.25 2931.17,2707.09 2930.95,2707.38 2930.65,2707.59 2930.26,2707.72 2929.78,2707.77 2929.81,2709.77 2931.28,2711.25 2933.28,2711.28"/>
    </edge>
    <edge id=":10054309112_w0" function="walkingarea">
        <lane id=":10054309112_w0_0" index="0" allow="pedestrian" speed="2.78" length="5.45" width="2.00" shape="2929.06,2693.69 2930.83,2692.77 2930.03,2690.76 2929.94,2689.98 2929.97,2689.18 2930.07,2688.22 2930.18,2686.95 2928.21,2686.39 2928.05,2687.14 2927.90,2687.26 2927.70,2687.22 2927.46,2687.01 2927.17,2686.63 2925.51,2687.74 2926.44,2689.62 2926.59,2690.47 2926.53,2691.26 2926.26,2691.99 2925.79,2692.67 2927.60,2693.64 2928.17,2693.20 2928.42,2693.15 2928.65,2693.21 2928.86,2693.40"/>
    </edge>
    <edge id=":10054309115_w0" function="walkingarea">
        <lane id=":10054309115_w0_0" index="0" allow="pedestrian" speed="2.78" length="4.08" width="2.00" shape="2919.86,2697.84 2919.69,2695.84 2918.86,2695.75 2918.58,2695.57 2918.38,2695.29 2918.26,2694.93 2918.23,2694.48 2916.23,2694.43 2916.14,2699.46 2918.14,2699.49 2918.34,2698.64 2918.58,2698.32 2918.91,2698.09 2919.34,2697.92"/>
    </edge>
    <edge id=":172668791_0" function="internal">
        <lane id=":172668791_0_0" index="0" disallow="pedestrian tram rail_urban rail rail_electric rail_fast ship cable_car subway" speed="8.94" length="8.17" shape="2145.94,2571.54 2146.07,2573.92 2146.55,2575.53 2147.07,2577.13 2147.30,2579.51"/>
        <lane id=":172668791_0_1" index="1" disallow="pedestrian tram rail_urban rail rail_electric rail_fast ship cable_car subway" speed="8.94" length="8.17" shape="2145.94,2571.54 2145.57,2573.93 2144.95,2575.51 2144.37,2577.10 2144.10,2579.49"/>
    </edge>
    <edge id=":172668791_w0" function="walkingarea">
        <lane id=":172668791_w0_0" index="0" allow="pedestrian" speed="2.78" length="7.95" width="3.00" shape="2148.90,2579.53 2151.90,2579.55 2150.54,2571.79 2147.54,2571.63 2147.57,2573.32 2147.81,2574.56 2148.15,2575.57 2148.51,2576.59 2148.79,2577.83"/>
    </edge>
    <edge id=":7221608314_0" function="internal">
        <lane id=":7221608314_0_0" index="0" disallow="pedestrian tram rail_urban rail rail_electric rail_fast ship cable_car subway" speed="8.94" length="8.54" shape="2138.16,2723.77 2137.56,2721.32 2136.40,2719.83 2135.25,2718.33 2134.66,2715.89"/>
        <lane id=":7221608314_0_1" index="1" disallow="pedestrian tram rail_urban rail rail_electric rail_fast ship cable_car subway" speed="8.94" length="8.54" shape="2138.16,2723.77 2137.86,2715.77"/>
        <lane id=":7221608314_0_2" index="2" disallow="pedestrian tram rail_urban rail rail_electric rail_fast ship cable_car subway" speed="8.94" length="8.54" shape="2138.16,2723.77 2138.56,2721.29 2139.60,2719.71 2140.64,2718.13 2141.05,2715.66"/>
    </edge>
    <edge id=":9655154423_w0" function="walkingarea">
        <lane id=":9655154423_w0_0" index="0" allow="pedestrian" speed="2.78" length="5.15" width="2.00" shape="2768.28,2666.60 2770.28,2666.58 2770.35,2664.39 2770.53,2663.62 2770.87,2662.92 2771.43,2662.16 2772.25,2661.24 2770.02,2660.84 2769.48,2661.34 2769.20,2661.39 2768.91,2661.33 2768.62,2661.13 2768.34,2660.84 2766.27,2661.45 2767.55,2663.13 2767.91,2663.80 2768.13,2664.52 2768.25,2665.41"/>
    </edge>
    <edge id=":9655154520_w0" function="walkingarea">
        <lane id=":9655154520_w0_0" index="0" allow="pedestrian" speed="2.78" length="5.37" width="2.00" shape="2778.06,2657.48 2777.98,2655.48 2771.34,2655.77 2771.42,2657.77 2772.08,2657.86 2772.21,2658.00 2772.21,2658.20 2772.07,2658.47 2771.85,2658.75 2772.96,2660.49 2774.52,2658.78 2775.16,2658.23 2775.87,2657.84 2776.79,2657.60"/>
    </edge>
    <edge id=":9655154527_w0" function="walkingarea">
        <lane id=":9655154527_w0_0" index="0" allow="pedestrian" speed="2.78" length="5.45" width="2.00" shape="2765.93,2661.02 2766.80,2659.02 2766.37,2658.46 2766.36,2658.26 2766.49,2658.11 2766.77,2658.01 2767.18,2657.96 2767.12,2655.96 2760.44,2656.21 2760.50,2658.21 2762.49,2658.48 2763.42,2658.87 2764.31,2659.42 2765.14,2660.14"/>
    </edge>
    <edge id=":9655154530_w0" function="walkingarea">
        <lane id=":9655154530_w0_0" index="0" allow="pedestrian" speed="2.78" length="4.58" width="2.00" shape="2680.27,2657.77 2682.26,2657.64 2682.46,2656.81 2682.76,2656.51 2683.18,2656.31 2683.74,2656.18 2684.43,2656.14 2684.43,2654.14 2683.84,2653.99 2683.63,2653.80 2683.49,2653.53 2683.40,2653.19 2683.37,2652.77 2681.38,2651.59 2681.07,2653.00 2680.69,2653.50 2680.16,2653.85 2679.49,2654.06 2678.66,2654.13 2678.66,2656.13 2679.50,2656.32 2679.81,2656.55 2680.04,2656.86 2680.19,2657.27"/>
    </edge>
    <edge id=":9655154873_w0" function="walkingarea">
        <lane id=":9655154873_w0_0" index="0" allow="pedestrian" speed="2.78" length="1.02" width="2.00" shape="2933.27,2711.86 2933.30,2709.86 2931.30,2709.83 2931.51,2710.94 2931.78,2711.33 2932.17,2711.62 2932.66,2711.79"/>
    </edge>
    <edge id=":9655154879_w0" function="walkingarea">
        <lane id=":9655154879_w0_0" index="0" allow="pedestrian" speed="2.78" length="9.40" width="2.00" shape="2934.90,2709.88 2934.86,2711.88 2944.27,2712.03 2944.29,2710.03"/>
    </edge>
    <edge id=":9655154897_w0" function="walkingarea">
        <lane id=":9655154897_w0_0" index="0" allow="pedestrian" speed="2.78" length="3.53" width="2.00" shape="2948.31,2708.58 2946.31,2708.56 2946.14,2709.39 2945.92,2709.68 2945.63,2709.88 2945.26,2710.00 2944.80,2710.04 2944.76,2712.04 2946.72,2711.68 2947.41,2711.20 2947.90,2710.52 2948.20,2709.65"/>
    </edge>
    <edge id=":9658681335_w0" function="walkingarea">
        <lane id=":9658681335_w0_0" index="0" allow="pedestrian" speed="2.78" length="0.24" width="2.00" shape="2949.01,2659.72 2947.01,2659.74 2947.01,2659.94 2949.01,2660.00"/>
    </edge>
    <edge id=":9658681347_w0" function="walkingarea">
        <lane id=":9658681347_w0_0" index="0" allow="pedestrian" speed="2.78" length="1.43" width="2.00" shape="2945.15,2579.43 2947.15,2579.30 2946.85,2578.19 2946.54,2577.82 2946.12,2577.57 2945.61,2577.44 2944.98,2577.44 2945.15,2579.43"/>
    </edge>
    <edge id=":9658685906_w0" function="walkingarea">
        <lane id=":9658685906_w0_0" index="0" allow="pedestrian" speed="2.78" length="0.10" width="2.00" shape="2946.01,2592.32 2948.01,2592.30 2948.01,2592.18 2946.01,2592.32"/>
    </edge>
    <edge id=":9666242268_w0" function="walkingarea">
        <lane id=":9666242268_w0_0" index="0" allow="pedestrian" speed="2.78" length="3.54" width="2.00" shape="2155.29,2642.14 2157.29,2642.06 2157.42,2641.23 2157.62,2640.94 2157.90,2640.74 2158.27,2640.62 2158.73,2640.58 2158.76,2638.58 2157.57,2638.42 2157.08,2638.24 2156.66,2637.98 2156.30,2637.66 2156.02,2637.26 2154.29,2638.26 2154.98,2639.59 2155.14,2640.10 2155.22,2640.63 2155.26,2641.28"/>
    </edge>
    <edge id=":9666242290_w0" function="walkingarea">
        <lane id=":9666242290_w0_0" index="0" allow="pedestrian" speed="2.78" length="1.47" width="2.00" shape="2156.43,2729.76 2156.47,2727.76 2153.47,2727.73 2153.47,2729.73"/>
    </edge>
    <edge id=":9666242291_w0" function="walkingarea">
        <lane id=":9666242291_w0_0" index="0" allow="pedestrian" speed="2.78" length="2.06" width="2.00" shape="2136.27,2729.71 2136.27,2727.71 2135.30,2727.68 2134.88,2727.59 2134.54,2727.43 2134.31,2727.15 2134.21,2726.73 2133.27,2729.71"/>
    </edge>
    <edge id=":9666242292_w0" function="walkingarea">
        <lane id=":9666242292_w0_0" index="0" allow="pedestrian" speed="2.78" length="6.36" width="3.00" shape="2144.88,2727.72 2144.88,2729.72 2153.67,2729.73 2153.68,2727.73 2152.59,2726.23 2149.59,2726.22"/>
    </edge>
    <edge id=":9666242293_w0" function="walkingarea">
        <lane id=":9666242293_w0_0" index="0" allow="pedestrian" speed="2.78" length="5.58" width="2.00" shape="2135.84,2727.71 2135.84,2729.71 2141.42,2729.71 2141.42,2727.71"/>
    </edge>
    <edge id=":9666242294_w0" function="walkingarea">
        <lane id=":9666242294_w0_0" index="0" allow="pedestrian" speed="2.78" length="3.12" width="2.00" shape="2157.97,2726.27 2155.97,2726.25 2154.46,2727.72 2154.42,2729.72 2155.93,2731.25 2157.93,2731.27"/>
    </edge>
    <edge id=":9666274568_w0" function="walkingarea">
        <lane id=":9666274568_w0_0" index="0" allow="pedestrian" speed="2.78" length="5.15" width="2.00" shape="2423.35,2659.90 2423.38,2657.90 2420.96,2657.89 2420.12,2657.90 2419.28,2657.95 2418.25,2658.02 2416.87,2658.13 2416.94,2660.14 2417.64,2660.17 2417.77,2660.28 2417.76,2660.45 2417.59,2660.68 2417.28,2660.98 2418.50,2662.57 2420.08,2661.08 2420.68,2660.56 2421.33,2660.18 2422.18,2659.97"/>
    </edge>
    <edge id=":9666274574_w0" function="walkingarea">
        <lane id=":9666274574_w0_0" index="0" allow="pedestrian" speed="2.78" length="6.45" width="2.00" shape="2442.64,2655.90 2442.71,2653.90 2434.30,2653.61 2434.23,2655.61 2434.33,2656.22 2434.98,2658.12 2437.69,2656.78 2438.68,2656.34 2439.69,2656.05 2440.94,2655.90"/>
    </edge>
    <edge id=":9666274616_w0" function="walkingarea">
        <lane id=":9666274616_w0_0" index="0" allow="pedestrian" speed="2.78" length="0.30" width="2.00" shape="2544.86,2656.92 2544.88,2654.92 2544.58,2654.92 2544.56,2656.92"/>
    </edge>
    <edge id=":9666274634_w0" function="walkingarea">
        <lane id=":9666274634_w0_0" index="0" allow="pedestrian" speed="2.78" length="0.26" width="2.00" shape="2489.01,2663.27 2487.62,2661.83 2487.42,2662.03 2488.84,2663.44"/>
    </edge>
    <edge id=":9666274635_w0" function="walkingarea">
        <lane id=":9666274635_w0_0" index="0" allow="pedestrian" speed="2.78" length="4.76" width="2.00" shape="2496.63,2657.46 2496.67,2655.46 2490.83,2655.35 2490.79,2657.35 2491.50,2657.48 2491.64,2657.63 2491.64,2657.83 2491.50,2658.09 2491.21,2658.41 2492.59,2659.86 2493.87,2658.50 2494.37,2658.03 2494.92,2657.70 2495.63,2657.51"/>
    </edge>
    <edge id=":9666274693_w0" function="walkingarea">
        <lane id=":9666274693_w0_0" index="0" allow="pedestrian" speed="2.78" length="0.30" width="2.00" shape="2158.20,2696.73 2156.20,2696.73 2156.20,2697.02 2158.20,2697.04"/>
    </edge>
    <edge id=":9666274719_w0" function="walkingarea">
        <lane id=":9666274719_w0_0" index="0" allow="pedestrian" speed="2.78" length="6.11" width="2.00" shape="2210.18,2643.67 2211.02,2641.85 2211.16,2641.25 2211.19,2639.25 2203.25,2639.13 2203.22,2641.13 2205.93,2641.46 2206.83,2641.83 2207.71,2642.33 2208.75,2642.95"/>
    </edge>
    <edge id=":9666274721_w0" function="walkingarea">
        <lane id=":9666274721_w0_0" index="0" allow="pedestrian" speed="2.78" length="4.26" width="2.00" shape="2305.23,2639.47 2305.27,2637.47 2300.11,2637.38 2300.08,2639.38 2300.85,2639.55 2301.06,2639.75 2301.16,2640.02 2301.14,2640.37 2301.00,2640.79 2302.85,2641.56 2303.51,2640.39 2303.89,2639.98 2304.30,2639.69 2304.75,2639.52"/>
    </edge>
    <edge id=":9666274722_w0" function="walkingarea">
        <lane id=":9666274722_w0_0" index="0" allow="pedestrian" speed="2.78" length="4.05" width="2.00" shape="2262.78,2640.80 2264.78,2640.80 2264.95,2639.91 2265.15,2639.59 2265.45,2639.35 2265.82,2639.20 2266.28,2639.13 2266.18,2637.13 2261.18,2637.38 2261.28,2639.38 2262.11,2639.50 2262.41,2639.70 2262.61,2639.98 2262.74,2640.35"/>
    </edge>
    <edge id=":9666274728_w0" function="walkingarea">
        <lane id=":9666274728_w0_0" index="0" allow="pedestrian" speed="2.78" length="1.95" width="2.00" shape="2388.13,2664.84 2387.81,2662.87 2384.85,2663.36 2385.17,2665.33"/>
    </edge>
    <edge id=":9666274729_w0" function="walkingarea">
        <lane id=":9666274729_w0_0" index="0" allow="pedestrian" speed="2.78" length="0.24" width="2.00" shape="2405.82,2661.94 2405.43,2659.98 2405.23,2660.01 2405.55,2661.99"/>
    </edge>
    <edge id=":9666274737_w0" function="walkingarea">
        <lane id=":9666274737_w0_0" index="0" allow="pedestrian" speed="2.78" length="2.21" width="2.00" shape="2380.15,2653.26 2381.96,2652.42 2380.79,2649.77 2378.95,2650.55"/>
    </edge>
    <edge id=":9666274738_w0" function="walkingarea">
        <lane id=":9666274738_w0_0" index="0" allow="pedestrian" speed="2.78" length="0.26" width="2.00" shape="2380.94,2654.97 2382.78,2654.18 2382.66,2653.92 2380.85,2654.77"/>
    </edge>
    <edge id=":9666274742_w0" function="walkingarea">
        <lane id=":9666274742_w0_0" index="0" allow="pedestrian" speed="2.78" length="3.50" width="2.00" shape="2387.05,2665.02 2386.73,2663.05 2384.96,2661.71 2382.99,2662.07 2382.97,2662.91 2382.82,2663.21 2382.57,2663.44 2382.22,2663.60 2381.77,2663.69 2381.95,2665.68"/>
    </edge>
    <edge id=":9666274744_w0" function="walkingarea">
        <lane id=":9666274744_w0_0" index="0" allow="pedestrian" speed="2.78" length="4.31" width="2.00" shape="2379.46,2651.76 2381.25,2650.87 2381.11,2650.16 2381.20,2649.93 2381.40,2649.79 2381.72,2649.74 2382.14,2649.77 2382.60,2647.82 2377.15,2646.61 2376.69,2648.56 2377.70,2649.07 2378.17,2649.54 2378.62,2650.14 2379.05,2650.88"/>
    </edge>
    <edge id=":9666274798_w0" function="walkingarea">
        <lane id=":9666274798_w0_0" index="0" allow="pedestrian" speed="2.78" length="4.13" width="2.00" shape="2451.59,2657.83 2453.58,2657.76 2453.72,2656.94 2453.92,2656.65 2454.21,2656.45 2454.58,2656.34 2455.03,2656.31 2455.10,2654.31 2454.19,2654.10 2453.86,2653.87 2453.63,2653.54 2453.48,2653.13 2453.42,2652.63 2451.42,2652.70 2451.28,2653.52 2451.08,2653.81 2450.80,2654.01 2450.42,2654.12 2449.97,2654.14 2449.90,2656.14 2450.81,2656.35 2451.14,2656.59 2451.37,2656.92 2451.52,2657.33"/>
    </edge>
    <edge id=":9666274802_w0" function="walkingarea">
        <lane id=":9666274802_w0_0" index="0" allow="pedestrian" speed="2.78" length="4.30" width="2.00" shape="2455.44,2674.19 2455.56,2672.19 2454.72,2671.96 2454.42,2671.73 2454.20,2671.40 2454.06,2671.00 2454.01,2670.51 2452.01,2670.58 2451.82,2671.41 2451.56,2671.71 2451.20,2671.93 2450.72,2672.07 2450.14,2672.12 2450.18,2674.12 2450.96,2674.26 2451.19,2674.45 2451.30,2674.72 2451.31,2675.07 2451.20,2675.50 2453.10,2676.15 2453.67,2675.02 2454.03,2674.63 2454.45,2674.36 2454.92,2674.21"/>
    </edge>
    <edge id=":9666274808_w0" function="walkingarea">
        <lane id=":9666274808_w0_0" index="0" allow="pedestrian" speed="2.78" length="4.07" width="2.00" shape="2451.96,2669.05 2453.95,2668.99 2454.09,2668.16 2454.29,2667.87 2454.58,2667.67 2454.95,2667.55 2455.40,2667.52 2455.45,2665.52 2454.55,2665.33 2454.23,2665.11 2454.00,2664.81 2453.85,2664.42 2453.79,2663.95 2451.79,2664.02 2451.64,2664.86 2451.44,2665.16 2451.15,2665.39 2450.76,2665.54 2450.29,2665.60 2450.41,2667.60 2451.24,2667.72 2451.54,2667.92 2451.76,2668.21 2451.90,2668.59"/>
    </edge>
    <edge id=":9666274813_w0" function="walkingarea">
        <lane id=":9666274813_w0_0" index="0" allow="pedestrian" speed="2.78" length="4.04" width="2.00" shape="2478.68,2673.71 2478.45,2671.10 2477.57,2671.54 2477.00,2671.57 2476.33,2671.47 2475.58,2671.23 2474.74,2670.86 2473.86,2672.66 2473.71,2673.23 2473.59,2675.23 2475.67,2675.14 2476.56,2674.95 2477.36,2674.64 2478.07,2674.23"/>
    </edge>
    <edge id=":9666274886_w0" function="walkingarea">
        <lane id=":9666274886_w0_0" index="0" allow="pedestrian" speed="2.78" length="4.03" width="2.00" shape="2569.49,2657.18 2569.51,2655.18 2568.68,2655.01 2568.39,2654.79 2568.18,2654.50 2568.05,2654.11 2568.01,2653.64 2566.01,2653.64 2565.84,2654.47 2565.64,2654.76 2565.34,2654.97 2564.97,2655.09 2564.51,2655.12 2564.49,2657.12"/>
    </edge>
    <edge id=":9687148182_w0" function="walkingarea">
        <lane id=":9687148182_w0_0" index="0" allow="pedestrian" speed="2.78" length="3.78" width="2.00" shape="2125.71,2642.22 2127.01,2640.64 2126.56,2639.85 2126.47,2639.47 2126.48,2639.09 2126.59,2638.71 2126.79,2638.33 2125.13,2637.22 2124.54,2637.82 2124.18,2638.02 2123.77,2638.14 2123.31,2638.19 2122.81,2638.17 2122.01,2640.10 2123.39,2640.44 2124.02,2640.74 2124.62,2641.14 2125.19,2641.63"/>
    </edge>
    <edge id=":9687148197_w0" function="walkingarea">
        <lane id=":9687148197_w0_0" index="0" allow="pedestrian" speed="2.78" length="1.77" width="4.00" shape="2154.99,2639.48 2156.72,2638.47 2156.05,2637.17 2155.90,2636.67 2155.83,2636.15 2155.81,2635.51 2155.81,2634.66 2153.81,2634.67 2153.65,2635.50 2153.44,2635.79 2153.15,2635.99 2152.78,2636.11 2152.32,2636.14 2152.28,2638.14 2153.45,2638.31 2153.94,2638.49 2154.35,2638.75 2154.71,2639.08"/>
    </edge>
    <edge id=":9687148198_w0" function="walkingarea">
        <lane id=":9687148198_w0_0" index="0" allow="pedestrian" speed="2.78" length="1.19" width="4.00" shape="2157.34,2615.31 2156.22,2613.65 2152.62,2614.57 2152.59,2616.57 2153.42,2616.75 2153.70,2616.96 2153.90,2617.26 2154.02,2617.64 2154.04,2618.09 2156.04,2618.15"/>
    </edge>
    <edge id=":9687148199_w0" function="walkingarea">
        <lane id=":9687148199_w0_0" index="0" allow="pedestrian" speed="2.78" length="1.70" width="4.00" shape="2132.42,2616.78 2132.15,2614.80 2131.30,2614.74 2130.99,2614.58 2130.75,2614.32 2130.58,2613.96 2130.49,2613.51 2128.50,2613.75 2128.69,2615.42 2128.71,2616.01 2128.70,2616.60 2128.64,2617.31 2128.53,2618.27 2130.52,2618.50 2130.81,2617.65 2131.08,2617.33 2131.44,2617.07 2131.89,2616.89"/>
    </edge>
    <edge id=":9687148200_w0" function="walkingarea">
        <lane id=":9687148200_w0_0" index="0" allow="pedestrian" speed="2.78" length="2.12" width="4.00" shape="2129.36,2637.71 2129.40,2635.71 2128.60,2635.53 2128.34,2635.32 2128.19,2635.03 2128.13,2634.66 2128.17,2634.21 2126.20,2633.85 2125.92,2635.41 2125.77,2635.95 2125.56,2636.46 2125.23,2637.05 2124.74,2637.80 2126.40,2638.92 2127.10,2638.23 2127.56,2637.99 2128.09,2637.83 2128.69,2637.73"/>
    </edge>
    <edge id=":9687148211_w0" function="walkingarea">
        <lane id=":9687148211_w0_0" index="0" allow="pedestrian" speed="2.78" length="3.75" width="2.00" shape="2128.71,2615.49 2130.69,2615.25 2130.69,2614.08 2130.80,2613.54 2130.98,2613.02 2131.23,2612.53 2131.55,2612.06 2130.30,2610.41 2129.71,2611.24 2129.12,2611.61 2128.36,2611.92 2127.43,2612.18 2126.32,2612.39 2127.07,2614.30 2127.90,2614.33 2128.21,2614.48 2128.45,2614.73 2128.61,2615.06"/>
    </edge>
    <edge id=":9687148317_w0" function="walkingarea">
        <lane id=":9687148317_w0_0" index="0" allow="pedestrian" speed="2.78" length="0.30" width="2.00" shape="2129.14,2655.93 2127.14,2655.91 2127.14,2656.21 2129.14,2656.23"/>
    </edge>
    <edge id=":9687187495_w0" function="walkingarea">
        <lane id=":9687187495_w0_0" index="0" allow="pedestrian" speed="2.78" length="1.20" width="2.00" shape="2152.92,2545.68 2152.93,2543.68 2149.95,2543.65 2149.92,2545.65"/>
    </edge>
    <edge id=":9687187500_0" function="internal">
        <lane id=":9687187500_0_0" index="0" disallow="pedestrian tram rail_urban rail rail_electric rail_fast ship cable_car subway" speed="8.94" length="5.04" shape="2147.24,2542.10 2147.20,2547.14"/>
    </edge>
    <edge id=":9687187500_c0" function="crossing" crossingEdges="1078803477#4.109">
        <lane id=":9687187500_c0_0" index="0" allow="pedestrian" speed="2.78" length="3.20" width="4.00" shape="2145.62,2544.09 2148.82,2544.11" outlineShape="2145.64,2542.09 2148.84,2542.11 2148.81,2546.11 2145.61,2546.09 2145.64,2542.09"/>
    </edge>
    <edge id=":9687187500_w0" function="walkingarea">
        <lane id=":9687187500_w0_0" index="0" allow="pedestrian" speed="2.78" length="3.21" width="4.00" shape="2148.80,2547.15 2151.80,2547.18 2151.51,2545.67 2151.54,2543.67 2151.84,2542.14 2148.84,2542.11 2148.81,2546.11"/>
    </edge>
    <edge id=":9687187500_w1" function="walkingarea">
        <lane id=":9687187500_w1_0" index="0" allow="pedestrian" speed="2.78" length="1.58" width="4.00" shape="2145.61,2546.09 2145.64,2542.09 2144.13,2543.57 2144.10,2545.57"/>
    </edge>
    <edge id=":9687187501_0" function="internal">
        <lane id=":9687187501_0_0" index="0" disallow="pedestrian tram rail_urban rail rail_electric rail_fast ship cable_car subway" speed="8.94" length="5.13" shape="2139.37,2547.06 2139.64,2541.94"/>
    </edge>
    <edge id=":9687187501_c0" function="crossing" crossingEdges="773672649#2">
        <lane id=":9687187501_c0_0" index="0" allow="pedestrian" speed="2.78" length="3.20" width="4.00" shape="2137.93,2543.85 2141.13,2544.02" outlineShape="2138.04,2541.85 2141.24,2542.03 2142.63,2545.54 2142.66,2543.54 2141.29,2542.08 2141.02,2546.02 2137.82,2545.84 2138.04,2541.85 2136.38,2543.45 2136.35,2545.45"/>
    </edge>
    <edge id=":9687187501_w0" function="walkingarea">
        <lane id=":9687187501_w0_0" index="0" allow="pedestrian" speed="2.78" length="1.60" width="4.00" shape="2142.63,2545.54 2142.66,2543.54 2141.24,2542.03 2141.02,2546.02"/>
    </edge>
    <edge id=":9687187501_w1" function="walkingarea">
        <lane id=":9687187501_w1_0" index="0" allow="pedestrian" speed="2.78" length="1.68" width="4.00" shape="2137.82,2545.84 2138.04,2541.85 2136.38,2543.45 2136.35,2545.45"/>
    </edge>
    <edge id=":9687187513_w0" function="walkingarea">
        <lane id=":9687187513_w0_0" index="0" allow="pedestrian" speed="2.78" length="4.02" width="2.00" shape="2131.33,2511.57 2131.37,2509.57 2126.37,2509.49 2126.33,2511.49 2127.16,2511.67 2127.45,2511.88 2127.65,2512.18 2127.77,2512.55 2127.80,2513.01 2129.80,2513.05 2129.99,2512.22 2130.20,2511.93 2130.50,2511.72 2130.87,2511.61"/>
    </edge>
    <edge id=":9687187518_w0" function="walkingarea">
        <lane id=":9687187518_w0_0" index="0" allow="pedestrian" speed="2.78" length="4.04" width="2.00" shape="2127.11,2581.42 2129.11,2581.36 2128.99,2576.38 2126.99,2576.42 2126.84,2577.25 2126.64,2577.53 2126.35,2577.74 2125.98,2577.85 2125.52,2577.88 2125.48,2579.88 2126.37,2580.07 2126.68,2580.28 2126.91,2580.58 2127.05,2580.96"/>
    </edge>
    <edge id=":9687187522_w0" function="walkingarea">
        <lane id=":9687187522_w0_0" index="0" allow="pedestrian" speed="2.78" length="4.04" width="2.00" shape="2133.24,2580.27 2131.24,2580.20 2131.04,2581.03 2130.81,2581.33 2130.50,2581.53 2130.11,2581.66 2129.63,2581.70 2129.63,2583.70 2130.46,2583.87 2130.74,2584.07 2130.94,2584.37 2131.06,2584.74 2131.08,2585.20 2133.08,2585.26"/>
    </edge>
    <edge id=":9687187524_w0" function="walkingarea">
        <lane id=":9687187524_w0_0" index="0" allow="pedestrian" speed="2.78" length="4.03" width="2.00" shape="2126.82,2567.22 2128.82,2567.18 2128.97,2566.35 2129.17,2566.05 2129.46,2565.85 2129.83,2565.72 2130.29,2565.68 2130.29,2563.68 2129.46,2563.51 2129.17,2563.31 2128.97,2563.01 2128.85,2562.64 2128.82,2562.18 2126.82,2562.14"/>
    </edge>
    <edge id=":9687187526_w0" function="walkingarea">
        <lane id=":9687187526_w0_0" index="0" allow="pedestrian" speed="2.78" length="4.03" width="2.00" shape="2133.21,2545.40 2133.24,2543.40 2132.41,2543.22 2132.12,2543.01 2131.92,2542.71 2131.80,2542.34 2131.77,2541.88 2129.77,2541.84 2129.68,2546.84 2131.68,2546.88 2131.86,2546.04 2132.07,2545.76 2132.37,2545.55 2132.75,2545.43"/>
    </edge>
    <edge id=":9727779401_0" function="internal">
        <lane id=":9727779401_0_0" index="0" allow="pedestrian passenger delivery bicycle" speed="3.65" length="4.67" shape="2341.43,2567.54 2340.22,2566.75 2339.81,2565.96 2340.20,2565.15 2341.39,2564.34"/>
    </edge>
    <edge id=":9727779405_0" function="internal">
        <lane id=":9727779405_0_0" index="0" allow="pedestrian passenger delivery bicycle" speed="5.56" length="5.37" shape="2365.99,2620.82 2364.76,2626.05"/>
    </edge>
    <edge id=":9727779405_1" function="internal">
        <lane id=":9727779405_1_0" index="0" allow="pedestrian passenger delivery bicycle" speed="3.65" length="1.44" shape="2365.99,2620.82 2364.98,2621.85"/>
    </edge>