<?xml version="1.0" encoding="UTF-8"?>
                        <configuration>
                            <input>
                                <net-file value="network_iterations/network_iteration_1.net.xml"/>
                            </input>
                            <output>
                                <log value="sumo_logfile.txt"/>
                                <error-log value="sumo_errorlog.txt"/>
                            </output>
                        </configuration>