<configuration>
    <input>
        <net-file value="Craver_traffic_lights_wide.net.xml"/>
        <gui-settings-file value="view.xml"/>
    </input>
    <output>
        <log value="sumo_logfile.txt"/>
        <error-log value="sumo_errorlog.txt"/>
    </output>
</configuration>
