<?xml version="1.0" encoding="UTF-8"?>

<net version="1.20" junctionCornerDetail="5" walkingareas="true" limitTurnSpeed="5.50" xmlns:xsi="http://www.w3.org/2001/XMLSchema-instance" xsi:noNamespaceSchemaLocation="http://sumo.dlr.de/xsd/net_file.xsd">

    <location netOffset="8989687.78,-4203182.81" convBoundary="2030.74,2510.12,2948.01,2729.96" origBoundary="-80.755739,35.288692,-80.708073,35.331715" projParameter="+proj=merc +a=6378137 +b=6378137 +lat_ts=0.0 +lon_0=0.0 +x_0=0.0 +y_0=0 +k=1.0 +units=m +nadgrids=@null +wktext +no_defs"/>

    <type id="highway.footway" priority="1" numLanes="1" speed="2.78" allow="pedestrian" oneway="1" width="2.00"/>
    <type id="highway.service" priority="1" numLanes="1" speed="5.56" allow="pedestrian delivery bicycle" oneway="1"/>
    <type id="highway.steps" priority="1" numLanes="1" speed="1.39" allow="pedestrian" oneway="1" width="2.00"/>
    <type id="highway.tertiary" priority="10" numLanes="1" speed="13.89" disallow="pedestrian tram rail_urban rail rail_electric rail_fast ship" oneway="1" sidewalkWidth="-1.00"/>

    <edge id=":10054309033_w0" function="walkingarea">
        <lane id=":10054309033_w0_0" index="0" allow="pedestrian" speed="2.78" length="7.04" width="4.00" shape="2790.28,2662.05 2792.33,2658.61 2792.54,2657.77 2792.35,2653.78 2782.10,2654.27 2782.30,2658.26 2785.48,2658.64 2786.52,2659.23 2787.50,2660.01 2788.68,2660.97"/>
    </edge>
    <edge id=":10054309034_w0" function="walkingarea">
        <lane id=":10054309034_w0_0" index="0" allow="pedestrian" speed="2.78" length="0.29" width="4.00" shape="2806.27,2671.57 2808.26,2668.10 2808.04,2667.97 2805.99,2671.40"/>
    </edge>
    <edge id=":10054309035_w0" function="walkingarea">
        <lane id=":10054309035_w0_0" index="0" allow="pedestrian" speed="2.78" length="0.29" width="4.00" shape="2812.03,2674.88 2813.97,2671.38 2813.74,2671.26 2811.75,2674.72"/>
    </edge>
    <edge id=":10054309038_w0" function="walkingarea">
        <lane id=":10054309038_w0_0" index="0" allow="pedestrian" speed="2.78" length="5.51" width="4.00" shape="2820.99,2673.49 2817.46,2671.60 2816.92,2672.26 2816.60,2672.41 2816.25,2672.46 2815.86,2672.38 2815.44,2672.20 2813.50,2675.70 2814.54,2676.45 2814.89,2676.86 2815.12,2677.30 2815.23,2677.76 2815.23,2678.24 2819.20,2678.73 2819.52,2676.69 2819.73,2675.99 2820.02,2675.32 2820.43,2674.54"/>
    </edge>
    <edge id=":10054309041_w0" function="walkingarea">
        <lane id=":10054309041_w0_0" index="0" allow="pedestrian" speed="2.78" length="5.16" width="4.00" shape="2831.30,2669.37 2832.60,2665.58 2831.82,2665.14 2831.55,2664.83 2831.37,2664.47 2831.27,2664.04 2831.25,2663.56 2827.26,2663.37 2827.06,2664.23 2826.84,2664.57 2826.54,2664.84 2826.17,2665.04 2825.72,2665.18 2826.55,2669.09 2828.32,2668.77 2828.95,2668.75 2829.59,2668.84 2830.33,2669.04"/>
    </edge>
    <edge id=":10054309045_w0" function="walkingarea">
        <lane id=":10054309045_w0_0" index="0" allow="pedestrian" speed="2.78" length="5.40" width="4.00" shape="2847.03,2674.59 2846.62,2670.61 2844.44,2670.94 2843.66,2671.05 2842.89,2671.04 2842.01,2670.84 2840.78,2670.37 2840.06,2674.32 2840.88,2674.64 2841.16,2674.90 2841.35,2675.23 2841.46,2675.62 2841.48,2676.09 2845.48,2676.25 2845.68,2675.40 2845.90,2675.08 2846.19,2674.84 2846.57,2674.68"/>
    </edge>
    <edge id=":10054309051_w0" function="walkingarea">
        <lane id=":10054309051_w0_0" index="0" allow="pedestrian" speed="2.78" length="5.88" width="4.00" shape="2862.95,2658.91 2863.06,2654.91 2855.97,2654.70 2855.85,2658.70 2856.68,2658.89 2856.91,2659.09 2857.02,2659.37 2857.01,2659.73 2856.87,2660.16 2860.78,2661.17 2861.44,2659.90 2861.80,2659.46 2862.17,2659.14 2862.55,2658.96"/>
    </edge>
    <edge id=":10054309101_w0" function="walkingarea">
        <lane id=":10054309101_w0_0" index="0" allow="pedestrian" speed="2.78" length="7.23" width="4.00" shape="2920.53,2683.33 2923.46,2680.60 2921.31,2678.18 2920.57,2677.32 2919.81,2676.49 2918.83,2675.54 2917.45,2674.30 2914.49,2677.04 2915.09,2678.20 2915.29,2679.17 2915.42,2680.40 2915.48,2681.89 2915.47,2683.64 2919.47,2683.73 2919.61,2683.02 2919.76,2682.88 2919.96,2682.89 2920.22,2683.03"/>
    </edge>
    <edge id=":10054309102_w0" function="walkingarea">
        <lane id=":10054309102_w0_0" index="0" allow="pedestrian" speed="2.78" length="5.20" width="4.00" shape="2920.60,2710.96 2920.51,2706.96 2919.05,2705.49 2915.05,2705.39 2913.30,2707.04 2913.30,2711.04 2914.51,2712.51 2918.57,2712.62"/>
    </edge>
    <edge id=":10054309103_w0" function="walkingarea">
        <lane id=":10054309103_w0_0" index="0" allow="pedestrian" speed="2.78" length="0.37" width="4.00" shape="2919.81,2710.97 2919.66,2706.98 2919.40,2706.98 2919.49,2710.98"/>
    </edge>
    <edge id=":10054309104_w0" function="walkingarea">
        <lane id=":10054309104_w0_0" index="0" allow="pedestrian" speed="2.78" length="0.27" width="4.00" shape="2922.85,2710.86 2922.80,2706.86 2922.48,2706.87 2922.63,2710.86"/>
    </edge>
    <edge id=":10054309105_w0" function="walkingarea">
        <lane id=":10054309105_w0_0" index="0" allow="pedestrian" speed="2.78" length="4.70" width="4.00" shape="2934.37,2705.32 2930.37,2705.26 2930.18,2706.10 2929.95,2706.39 2929.64,2706.61 2929.23,2706.74 2928.74,2706.78 2928.79,2710.78 2930.27,2712.27 2934.27,2712.32"/>
    </edge>
    <edge id=":10054309112_w0" function="walkingarea">
        <lane id=":10054309112_w0_0" index="0" allow="pedestrian" speed="2.78" length="8.85" width="4.00" shape="2928.98,2695.71 2932.53,2693.87 2931.26,2690.67 2931.11,2689.45 2931.15,2688.18 2931.25,2686.64 2931.31,2684.63 2927.31,2683.51 2927.21,2684.08 2927.09,2684.18 2926.92,2684.17 2926.70,2684.03 2926.43,2683.78 2923.07,2686.04 2924.79,2688.65 2925.08,2689.92 2924.99,2691.16 2924.52,2692.37 2923.67,2693.56 2927.29,2695.50 2927.92,2695.03 2928.21,2694.99 2928.48,2695.10 2928.74,2695.34"/>
    </edge>
    <edge id=":10054309115_w0" function="walkingarea">
        <lane id=":10054309115_w0_0" index="0" allow="pedestrian" speed="2.78" length="5.74" width="4.00" shape="2921.06,2698.72 2920.69,2694.62 2919.87,2694.71 2919.59,2694.56 2919.40,2694.29 2919.28,2693.90 2919.25,2693.38 2915.26,2693.29 2915.13,2700.35 2919.13,2700.40 2919.34,2699.76 2919.60,2699.47 2919.96,2699.20 2920.43,2698.96"/>
    </edge>
    <edge id=":172668791_0" function="internal">
        <lane id=":172668791_0_0" index="0" disallow="pedestrian tram rail_urban rail rail_electric rail_fast ship cable_car subway" speed="8.94" length="8.17" shape="2145.94,2571.54 2146.07,2573.92 2146.55,2575.53 2147.07,2577.13 2147.30,2579.51"/>
        <lane id=":172668791_0_1" index="1" disallow="pedestrian tram rail_urban rail rail_electric rail_fast ship cable_car subway" speed="8.94" length="8.17" shape="2145.94,2571.54 2145.57,2573.93 2144.95,2575.51 2144.37,2577.10 2144.10,2579.49"/>
    </edge>
    <edge id=":172668791_w0" function="walkingarea">
        <lane id=":172668791_w0_0" index="0" allow="pedestrian" speed="2.78" length="7.95" width="3.00" shape="2148.90,2579.53 2151.90,2579.55 2150.54,2571.79 2147.54,2571.63 2147.57,2573.32 2147.81,2574.56 2148.15,2575.57 2148.51,2576.59 2148.79,2577.83"/>
    </edge>
    <edge id=":7221608314_0" function="internal">
        <lane id=":7221608314_0_0" index="0" disallow="pedestrian tram rail_urban rail rail_electric rail_fast ship cable_car subway" speed="8.94" length="8.54" shape="2138.16,2723.77 2137.56,2721.32 2136.40,2719.83 2135.25,2718.33 2134.66,2715.89"/>
        <lane id=":7221608314_0_1" index="1" disallow="pedestrian tram rail_urban rail rail_electric rail_fast ship cable_car subway" speed="8.94" length="8.54" shape="2138.16,2723.77 2137.86,2715.77"/>
        <lane id=":7221608314_0_2" index="2" disallow="pedestrian tram rail_urban rail rail_electric rail_fast ship cable_car subway" speed="8.94" length="8.54" shape="2138.16,2723.77 2138.56,2721.29 2139.60,2719.71 2140.64,2718.13 2141.05,2715.66"/>
    </edge>
    <edge id=":9655154423_w0" function="walkingarea">
        <lane id=":9655154423_w0_0" index="0" allow="pedestrian" speed="2.78" length="5.59" width="4.00" shape="2767.29,2666.74 2771.28,2666.70 2771.66,2664.55 2772.14,2663.45 2772.82,2662.34 2773.70,2661.23 2774.77,2660.10 2770.12,2659.13 2769.46,2659.61 2769.15,2659.66 2768.84,2659.60 2768.54,2659.42 2768.25,2659.12 2763.96,2660.48 2765.81,2662.25 2766.45,2663.24 2766.91,2664.32 2767.18,2665.49"/>
    </edge>
    <edge id=":9655154520_w0" function="walkingarea">
        <lane id=":9655154520_w0_0" index="0" allow="pedestrian" speed="2.78" length="7.07" width="4.00" shape="2778.36,2658.46 2778.21,2654.46 2768.73,2654.89 2768.91,2658.88 2769.54,2658.98 2769.68,2659.12 2769.71,2659.33 2769.62,2659.61 2769.42,2659.94 2771.80,2663.54 2773.59,2660.80 2774.63,2659.83 2775.77,2659.12 2777.02,2658.66"/>
    </edge>
    <edge id=":9655154527_w0" function="walkingarea">
        <lane id=":9655154527_w0_0" index="0" allow="pedestrian" speed="2.78" length="6.94" width="4.00" shape="2766.97,2664.35 2769.03,2660.09 2768.68,2659.43 2768.70,2659.20 2768.86,2659.02 2769.16,2658.91 2769.59,2658.85 2769.48,2654.86 2760.21,2655.21 2760.32,2659.21 2762.82,2659.73 2763.96,2660.44 2765.04,2661.45 2766.04,2662.75"/>
    </edge>
    <edge id=":9655154530_w0" function="walkingarea">
        <lane id=":9655154530_w0_0" index="0" allow="pedestrian" speed="2.78" length="6.30" width="4.00" shape="2678.98,2658.87 2683.26,2658.63 2683.76,2657.80 2684.15,2657.51 2684.63,2657.31 2685.21,2657.18 2685.87,2657.14 2685.87,2653.14 2685.04,2652.97 2684.75,2652.77 2684.54,2652.47 2684.42,2652.10 2684.38,2651.64 2680.40,2649.27 2680.09,2651.42 2679.72,2652.17 2679.20,2652.71 2678.54,2653.03 2677.73,2653.13 2677.72,2657.13 2678.67,2657.33 2678.94,2657.57 2679.09,2657.90 2679.10,2658.34"/>
    </edge>
    <edge id=":9655154873_w0" function="walkingarea">
        <lane id=":9655154873_w0_0" index="0" allow="pedestrian" speed="2.78" length="2.00" width="4.00" shape="2934.25,2712.87 2934.32,2708.87 2930.32,2708.82 2930.73,2711.04 2931.27,2711.82 2932.04,2712.39 2933.04,2712.74"/>
    </edge>
    <edge id=":9655154879_w0" function="walkingarea">
        <lane id=":9655154879_w0_0" index="0" allow="pedestrian" speed="2.78" length="9.05" width="4.00" shape="2934.91,2708.88 2934.85,2712.88 2943.89,2713.02 2943.95,2709.02"/>
    </edge>
    <edge id=":9655154897_w0" function="walkingarea">
        <lane id=":9655154897_w0_0" index="0" allow="pedestrian" speed="2.78" length="4.71" width="4.00" shape="2949.31,2707.57 2945.31,2707.54 2945.14,2708.38 2944.93,2708.66 2944.64,2708.87 2944.26,2708.99 2943.80,2709.02 2943.73,2713.02 2946.82,2712.45 2947.90,2711.70 2948.68,2710.64 2949.15,2709.26"/>
    </edge>
    <edge id=":9658681335_w0" function="walkingarea">
        <lane id=":9658681335_w0_0" index="0" allow="pedestrian" speed="2.78" length="0.24" width="4.00" shape="2950.01,2659.72 2946.01,2659.74 2946.01,2659.91 2950.01,2660.03"/>
    </edge>
    <edge id=":9658681347_w0" function="walkingarea">
        <lane id=":9658681347_w0_0" index="0" allow="pedestrian" speed="2.78" length="2.85" width="4.00" shape="2944.22,2580.51 2948.21,2580.24 2947.61,2578.03 2947.00,2577.29 2946.17,2576.79 2945.13,2576.54 2943.89,2576.53 2944.22,2580.51"/>
    </edge>
    <edge id=":9658685906_w0" function="walkingarea">
        <lane id=":9658685906_w0_0" index="0" allow="pedestrian" speed="2.78" length="0.10" width="4.00" shape="2945.01,2592.35 2949.01,2592.33 2949.00,2592.09 2945.01,2592.35"/>
    </edge>
    <edge id=":9666242268_w0" function="walkingarea">
        <lane id=":9666242268_w0_0" index="0" allow="pedestrian" speed="2.78" length="4.71" width="4.00" shape="2154.33,2643.23 2158.33,2643.07 2158.46,2642.24 2158.66,2641.96 2158.94,2641.75 2159.31,2641.63 2159.77,2641.59 2159.82,2637.59 2156.60,2636.27 2153.14,2638.28"/>
    </edge>
    <edge id=":9666242290_w0" function="walkingarea">
        <lane id=":9666242290_w0_0" index="0" allow="pedestrian" speed="2.78" length="0.96" width="4.00" shape="2156.41,2730.76 2156.49,2726.76 2153.47,2726.73 2153.47,2730.73"/>
    </edge>
    <edge id=":9666242291_w0" function="walkingarea">
        <lane id=":9666242291_w0_0" index="0" allow="pedestrian" speed="2.78" length="14.99" width="4.00" shape="2135.40,2730.71 2135.40,2726.71 2134.29,2724.81 2133.80,2722.44 2133.35,2719.13 2132.95,2714.86 2132.59,2709.65 2128.98,2718.75 2129.74,2722.40 2130.61,2725.39 2131.62,2727.72 2132.75,2729.38 2134.01,2730.38"/>
    </edge>
    <edge id=":9666242292_w0" function="walkingarea">
        <lane id=":9666242292_w0_0" index="0" allow="pedestrian" speed="2.78" length="6.76" width="4.00" shape="2144.89,2726.72 2144.88,2730.72 2153.67,2730.73 2153.68,2726.73 2152.59,2725.23 2149.59,2725.22"/>
    </edge>
    <edge id=":9666242293_w0" function="walkingarea">
        <lane id=":9666242293_w0_0" index="0" allow="pedestrian" speed="2.78" length="5.98" width="4.00" shape="2135.40,2726.71 2135.40,2730.71 2141.38,2730.71 2141.38,2726.71"/>
    </edge>
    <edge id=":9666242294_w0" function="walkingarea">
        <lane id=":9666242294_w0_0" index="0" allow="pedestrian" speed="2.78" length="4.23" width="4.00" shape="2158.98,2725.26 2154.98,2725.23 2153.47,2726.70 2153.39,2730.70 2154.92,2732.23 2158.92,2732.26"/>
    </edge>
    <edge id=":9666274568_w0" function="walkingarea">
        <lane id=":9666274568_w0_0" index="0" allow="pedestrian" speed="2.78" length="7.80" width="4.00" shape="2423.68,2660.91 2423.73,2656.91 2421.60,2656.88 2420.01,2656.89 2418.71,2656.93 2417.41,2657.03 2415.84,2657.21 2413.71,2657.47 2413.85,2661.49 2414.19,2662.26 2419.44,2665.74 2418.17,2663.01 2418.55,2662.06 2419.59,2661.40 2421.30,2661.01"/>
    </edge>
    <edge id=":9666274574_w0" function="walkingarea">
        <lane id=":9666274574_w0_0" index="0" allow="pedestrian" speed="2.78" length="10.07" width="4.00" shape="2442.79,2656.90 2442.92,2652.90 2430.14,2652.30 2430.01,2656.30 2430.14,2657.03 2431.44,2660.84 2433.76,2659.67 2435.47,2658.67 2436.91,2657.86 2438.39,2657.28 2440.24,2656.95"/>
    </edge>
    <edge id=":9666274616_w0" function="walkingarea">
        <lane id=":9666274616_w0_0" index="0" allow="pedestrian" speed="2.78" length="0.30" width="4.00" shape="2544.85,2657.92 2544.89,2653.92 2544.59,2653.92 2544.55,2657.92"/>
    </edge>
    <edge id=":9666274634_w0" function="walkingarea">
        <lane id=":9666274634_w0_0" index="0" allow="pedestrian" speed="2.78" length="0.26" width="4.00" shape="2489.70,2664.00 2486.93,2661.10 2486.71,2661.32 2489.55,2664.14"/>
    </edge>
    <edge id=":9666274635_w0" function="walkingarea">
        <lane id=":9666274635_w0_0" index="0" allow="pedestrian" speed="2.78" length="7.23" width="4.00" shape="2497.02,2658.46 2497.10,2654.46 2488.42,2654.30 2488.34,2658.30 2489.05,2658.43 2489.20,2658.58 2489.19,2658.79 2489.05,2659.05 2488.76,2659.36 2491.52,2662.26 2493.28,2660.23 2493.92,2659.47 2494.65,2658.91 2495.62,2658.56"/>
    </edge>
    <edge id=":9666274693_w0" function="walkingarea">
        <lane id=":9666274693_w0_0" index="0" allow="pedestrian" speed="2.78" length="0.30" width="4.00" shape="2159.20,2696.73 2155.20,2696.73 2155.20,2697.01 2159.20,2697.04"/>
    </edge>
    <edge id=":9666274719_w0" function="walkingarea">
        <lane id=":9666274719_w0_0" index="0" allow="pedestrian" speed="2.78" length="10.07" width="4.00" shape="2214.08,2646.57 2215.76,2642.94 2215.90,2642.34 2215.95,2638.34 2203.05,2638.13 2203.00,2642.13 2205.52,2642.31 2207.32,2642.76 2208.75,2643.44 2210.12,2644.32 2211.79,2645.38"/>
    </edge>
    <edge id=":9666274721_w0" function="walkingarea">
        <lane id=":9666274721_w0_0" index="0" allow="pedestrian" speed="2.78" length="6.14" width="4.00" shape="2305.89,2640.48 2305.96,2636.48 2298.65,2636.36 2298.59,2640.36 2299.36,2640.53 2299.57,2640.72 2299.66,2641.00 2299.65,2641.34 2299.51,2641.77 2303.20,2643.31 2304.03,2641.73 2304.47,2641.17 2304.93,2640.78 2305.40,2640.55"/>
    </edge>
    <edge id=":9666274722_w0" function="walkingarea">
        <lane id=":9666274722_w0_0" index="0" allow="pedestrian" speed="2.78" length="5.69" width="4.00" shape="2261.79,2641.86 2265.79,2641.86 2265.93,2640.90 2266.14,2640.56 2266.43,2640.31 2266.81,2640.16 2267.28,2640.09 2267.09,2636.09 2260.08,2636.44 2260.28,2640.43 2261.10,2640.56 2261.39,2640.76 2261.60,2641.04 2261.74,2641.40"/>
    </edge>
    <edge id=":9666274728_w0" function="walkingarea">
        <lane id=":9666274728_w0_0" index="0" allow="pedestrian" speed="2.78" length="1.46" width="4.00" shape="2388.29,2665.83 2387.65,2661.88 2384.68,2662.37 2385.34,2666.32"/>
    </edge>
    <edge id=":9666274729_w0" function="walkingarea">
        <lane id=":9666274729_w0_0" index="0" allow="pedestrian" speed="2.78" length="0.24" width="4.00" shape="2406.02,2662.92 2405.23,2659.00 2405.07,2659.03 2405.72,2662.97"/>
    </edge>
    <edge id=":9666274737_w0" function="walkingarea">
        <lane id=":9666274737_w0_0" index="0" allow="pedestrian" speed="2.78" length="1.25" width="4.00" shape="2379.24,2653.68 2382.87,2652.00 2381.71,2649.38 2378.03,2650.93"/>
    </edge>
    <edge id=":9666274738_w0" function="walkingarea">
        <lane id=":9666274738_w0_0" index="0" allow="pedestrian" speed="2.78" length="0.26" width="4.00" shape="2380.02,2655.37 2383.70,2653.79 2383.57,2653.50 2379.94,2655.19"/>
    </edge>
    <edge id=":9666274742_w0" function="walkingarea">
        <lane id=":9666274742_w0_0" index="0" allow="pedestrian" speed="2.78" length="4.92" width="4.00" shape="2388.19,2665.85 2387.53,2661.90 2385.75,2660.46 2381.81,2661.18 2381.79,2662.01 2381.64,2662.32 2381.39,2662.55 2381.04,2662.71 2380.59,2662.79 2380.96,2666.77"/>
    </edge>
    <edge id=":9666274744_w0" function="walkingarea">
        <lane id=":9666274744_w0_0" index="0" allow="pedestrian" speed="2.78" length="6.06" width="4.00" shape="2379.31,2653.97 2382.90,2652.20 2383.80,2651.05 2384.71,2647.15 2376.91,2645.53 2376.01,2649.42"/>
    </edge>
    <edge id=":9666274798_w0" function="walkingarea">
        <lane id=":9666274798_w0_0" index="0" allow="pedestrian" speed="2.78" length="5.85" width="4.00" shape="2450.62,2658.93 2454.62,2658.80 2454.76,2657.97 2454.96,2657.68 2455.24,2657.49 2455.61,2657.37 2456.07,2657.35 2456.20,2653.35 2455.22,2653.12 2454.87,2652.87 2454.61,2652.52 2454.45,2652.07 2454.39,2651.53 2450.39,2651.66 2450.25,2652.49 2450.05,2652.77 2449.76,2652.97 2449.39,2653.08 2448.94,2653.11 2448.80,2657.11 2449.79,2657.33 2450.14,2657.59 2450.39,2657.94 2450.55,2658.39"/>
    </edge>
    <edge id=":9666274802_w0" function="walkingarea">
        <lane id=":9666274802_w0_0" index="0" allow="pedestrian" speed="2.78" length="6.02" width="4.00" shape="2456.11,2675.37 2456.52,2671.39 2455.69,2671.11 2455.39,2670.83 2455.17,2670.47 2455.03,2670.01 2454.97,2669.47 2450.97,2669.60 2450.74,2670.44 2450.43,2670.74 2449.98,2670.96 2449.40,2671.10 2448.68,2671.16 2448.78,2675.15 2449.56,2675.29 2449.78,2675.48 2449.90,2675.75 2449.90,2676.11 2449.80,2676.54 2453.58,2677.82 2454.26,2676.39 2454.66,2675.90 2455.10,2675.57 2455.59,2675.39"/>
    </edge>
    <edge id=":9666274808_w0" function="walkingarea">
        <lane id=":9666274808_w0_0" index="0" allow="pedestrian" speed="2.78" length="5.58" width="4.00" shape="2450.99,2670.14 2454.99,2670.01 2455.13,2669.18 2455.33,2668.90 2455.61,2668.70 2455.98,2668.58 2456.44,2668.55 2456.54,2664.55 2455.57,2664.35 2455.23,2664.13 2454.98,2663.82 2454.82,2663.42 2454.76,2662.94 2450.76,2663.07 2450.61,2663.92 2450.40,2664.22 2450.09,2664.45 2449.70,2664.59 2449.22,2664.66 2449.44,2668.66 2450.28,2668.78 2450.58,2668.99 2450.80,2669.28 2450.93,2669.67"/>
    </edge>
    <edge id=":9666274813_w0" function="walkingarea">
        <lane id=":9666274813_w0_0" index="0" allow="pedestrian" speed="2.78" length="3.43" width="4.00" shape="2475.98,2675.33 2476.03,2671.33 2474.20,2669.01 2473.34,2677.14"/>
    </edge>
    <edge id=":9666274886_w0" function="walkingarea">
        <lane id=":9666274886_w0_0" index="0" allow="pedestrian" speed="2.78" length="5.64" width="4.00" shape="2570.46,2658.18 2570.51,2654.18 2569.68,2654.01 2569.39,2653.79 2569.18,2653.49 2569.05,2653.10 2569.01,2652.63 2565.01,2652.63 2564.85,2653.46 2564.64,2653.75 2564.35,2653.96 2563.97,2654.08 2563.51,2654.11 2563.47,2658.11"/>
    </edge>
    <edge id=":9687148182_w0" function="walkingarea">
        <lane id=":9687148182_w0_0" index="0" allow="pedestrian" speed="2.78" length="4.92" width="4.00" shape="2125.54,2643.78 2128.23,2640.56 2127.80,2639.77 2127.73,2639.37 2127.76,2638.97 2127.89,2638.56 2128.12,2638.15 2124.80,2635.92 2124.13,2636.66 2123.74,2636.90 2123.32,2637.06 2122.87,2637.13 2122.39,2637.12 2120.79,2640.98 2122.98,2641.46 2123.85,2641.87 2124.57,2642.40 2125.13,2643.03"/>
    </edge>
    <edge id=":9687148197_w0" function="walkingarea">
        <lane id=":9687148197_w0_0" index="0" allow="pedestrian" speed="2.78" length="2.88" width="8.00" shape="2154.41,2640.46 2157.87,2638.46 2157.04,2636.81 2156.88,2636.17 2156.81,2635.51 2156.80,2634.70 2156.81,2633.64 2152.81,2633.65 2152.65,2634.48 2152.44,2634.77 2152.15,2634.97 2151.77,2635.09 2151.31,2635.12 2151.24,2639.12 2152.66,2639.29 2153.24,2639.48 2153.72,2639.74 2154.11,2640.07"/>
    </edge>
    <edge id=":9687148198_w0" function="walkingarea">
        <lane id=":9687148198_w0_0" index="0" allow="pedestrian" speed="2.78" length="2.38" width="8.00" shape="2158.33,2615.85 2156.08,2612.54 2151.62,2613.56 2151.56,2617.56 2152.39,2617.74 2152.67,2617.95 2152.87,2618.24 2152.99,2618.62 2153.01,2619.08 2157.01,2619.20"/>
    </edge>
    <edge id=":9687148199_w0" function="walkingarea">
        <lane id=":9687148199_w0_0" index="0" allow="pedestrian" speed="2.78" length="2.54" width="8.00" shape="2133.57,2617.63 2133.02,2613.67 2131.36,2612.38 2127.39,2612.85 2127.45,2618.92 2131.42,2619.39 2131.74,2618.53 2132.04,2618.20 2132.45,2617.94 2132.96,2617.75"/>
    </edge>
    <edge id=":9687148200_w0" function="walkingarea">
        <lane id=":9687148200_w0_0" index="0" allow="pedestrian" speed="2.78" length="3.25" width="8.00" shape="2130.52,2638.73 2130.59,2634.73 2129.79,2634.55 2129.54,2634.34 2129.38,2634.05 2129.32,2633.68 2129.36,2633.23 2125.42,2632.52 2125.08,2634.56 2124.91,2635.27 2124.65,2635.94 2124.24,2636.71 2123.61,2637.70 2126.93,2639.93 2127.70,2639.24 2128.24,2639.00 2128.90,2638.84 2129.65,2638.75"/>
    </edge>
    <edge id=":9687148211_w0" function="walkingarea">
        <lane id=":9687148211_w0_0" index="0" allow="pedestrian" speed="2.78" length="4.87" width="4.00" shape="2127.84,2616.71 2131.82,2616.24 2132.53,2612.43 2129.62,2608.96 2129.05,2610.31 2128.36,2610.79 2127.39,2611.13 2126.16,2611.34 2124.67,2611.42 2126.18,2615.41"/>
    </edge>
    <edge id=":9687148317_w0" function="walkingarea">
        <lane id=":9687148317_w0_0" index="0" allow="pedestrian" speed="2.78" length="0.30" width="4.00" shape="2130.14,2655.93 2126.14,2655.91 2126.14,2656.21 2130.14,2656.23"/>
    </edge>
    <edge id=":9687187495_w0" function="walkingarea">
        <lane id=":9687187495_w0_0" index="0" allow="pedestrian" speed="2.78" length="1.20" width="4.00" shape="2152.92,2546.68 2152.94,2542.68 2149.96,2542.65 2149.90,2546.65"/>
    </edge>
    <edge id=":9687187500_0" function="internal">
        <lane id=":9687187500_0_0" index="0" disallow="pedestrian tram rail_urban rail rail_electric rail_fast ship cable_car subway" speed="8.94" length="7.04" shape="2147.25,2541.10 2147.19,2548.14"/>
    </edge>
    <edge id=":9687187500_c0" function="crossing" crossingEdges="1078803477#4.109">
        <lane id=":9687187500_c0_0" index="0" allow="pedestrian" speed="2.78" length="3.20" width="4.00" shape="2145.62,2544.61 2148.82,2544.63" outlineShape="2145.54,2542.60 2148.84,2542.63 2148.80,2546.63 2145.60,2546.61 2145.64,2542.61"/>
    </edge>
    <edge id=":9687187500_w0" function="walkingarea">
        <lane id=":9687187500_w0_0" index="0" allow="pedestrian" speed="2.78" length="4.14" width="4.00" shape="2148.79,2548.08 2151.79,2548.24 2151.50,2546.67 2151.56,2542.67 2151.85,2541.14 2148.85,2541.11 2148.84,2542.63 2148.80,2546.63"/>
    </edge>
    <edge id=":9687187500_w1" function="walkingarea">
        <lane id=":9687187500_w1_0" index="0" allow="pedestrian" speed="2.78" length="1.51" width="4.00" shape="2145.60,2546.61 2145.64,2542.61 2144.14,2542.57 2144.08,2546.57"/>
    </edge>
    <edge id=":9687187501_0" function="internal">
        <lane id=":9687187501_0_0" index="0" disallow="pedestrian tram rail_urban rail rail_electric rail_fast ship cable_car subway" speed="8.94" length="7.13" shape="2139.31,2548.05 2139.70,2540.94"/>
    </edge>
    <edge id=":9687187501_c0" function="crossing" crossingEdges="773672649#2">
        <lane id=":9687187501_c0_0" index="0" allow="pedestrian" speed="2.78" length="3.20" width="4.00" shape="2137.90,2544.41 2141.10,2544.58" outlineShape="2137.91,2542.41 2141.31,2542.59 2142.65,2546.55 2142.71,2542.55 2141.21,2542.59 2140.99,2546.58 2137.79,2546.40 2138.01,2542.41 2136.36,2542.45 2136.30,2546.32"/>
    </edge>
    <edge id=":9687187501_w0" function="walkingarea">
        <lane id=":9687187501_w0_0" index="0" allow="pedestrian" speed="2.78" length="1.59" width="4.00" shape="2142.65,2546.55 2142.71,2542.55 2141.21,2542.59 2140.99,2546.58"/>
    </edge>
    <edge id=":9687187501_w1" function="walkingarea">
        <lane id=":9687187501_w1_0" index="0" allow="pedestrian" speed="2.78" length="1.58" width="4.00" shape="2137.79,2546.40 2138.01,2542.41 2136.36,2542.45 2136.29,2546.45"/>
    </edge>
    <edge id=":9687187513_w0" function="walkingarea">
        <lane id=":9687187513_w0_0" index="0" allow="pedestrian" speed="2.78" length="5.63" width="4.00" shape="2132.31,2512.59 2132.38,2508.59 2125.38,2508.47 2125.31,2512.47 2126.14,2512.65 2126.43,2512.87 2126.63,2513.16 2126.75,2513.54 2126.79,2514.00 2130.79,2514.07 2130.97,2513.24 2131.18,2512.95 2131.48,2512.74 2131.85,2512.62"/>
    </edge>
    <edge id=":9687187518_w0" function="walkingarea">
        <lane id=":9687187518_w0_0" index="0" allow="pedestrian" speed="2.78" length="5.36" width="4.00" shape="2126.14,2582.40 2131.67,2580.70 2130.77,2580.10 2130.45,2579.35 2130.21,2578.31 2130.05,2576.96 2129.97,2575.32 2125.97,2575.39 2125.82,2576.22 2125.62,2576.51 2125.33,2576.71 2124.96,2576.83 2124.50,2576.86 2124.41,2580.86 2125.35,2581.05 2125.69,2581.26 2125.93,2581.56 2126.08,2581.94"/>
    </edge>
    <edge id=":9687187522_w0" function="walkingarea">
        <lane id=":9687187522_w0_0" index="0" allow="pedestrian" speed="2.78" length="5.42" width="4.00" shape="2134.28,2579.34 2130.28,2579.20 2130.05,2579.21 2128.60,2584.70 2129.43,2584.87 2129.71,2585.07 2129.91,2585.37 2130.02,2585.74 2130.05,2586.20 2134.05,2586.32"/>
    </edge>
    <edge id=":9687187524_w0" function="walkingarea">
        <lane id=":9687187524_w0_0" index="0" allow="pedestrian" speed="2.78" length="5.54" width="4.00" shape="2125.84,2568.26 2129.84,2568.18 2130.68,2567.29 2131.31,2562.68 2130.48,2562.51 2130.19,2562.31 2129.99,2562.01 2129.87,2561.64 2129.84,2561.18 2125.84,2561.10"/>
    </edge>
    <edge id=":9687187526_w0" function="walkingarea">
        <lane id=":9687187526_w0_0" index="0" allow="pedestrian" speed="2.78" length="5.64" width="4.00" shape="2134.19,2546.41 2134.26,2542.42 2133.43,2542.24 2133.14,2542.02 2132.94,2541.73 2132.82,2541.35 2132.78,2540.89 2128.79,2540.82 2128.66,2547.82 2132.66,2547.89 2132.84,2547.06 2133.06,2546.77 2133.35,2546.57 2133.73,2546.45"/>
    </edge>
    <edge id=":9727779401_0" function="internal">
        <lane id=":9727779401_0_0" index="0" allow="pedestrian passenger delivery bicycle" speed="3.65" length="4.67" shape="2341.43,2567.54 2340.22,2566.75 2339.81,2565.96 2340.20,2565.15 2341.39,2564.34"/>
    </edge>
    <edge id=":9727779405_0" function="internal">
        <lane id=":9727779405_0_0" index="0" allow="pedestrian passenger delivery bicycle" speed="5.56" length="6.89" shape="2366.18,2619.84 2364.62,2626.54"/>
    </edge>
    <edge id=":9727779405_1" function="internal">
        <lane id=":9727779405_1_0" index="0" allow="pedestrian passenger delivery bicycle" speed="3.65" length="1.44" shape="2366.18,2619.84 2365.17,2620.86"/>
    </edge>
    <edge id=":9727779405_4" function="internal">
        <lane id=":9727779405_4_0" index="0" allow="pedestrian passenger delivery bicycle" speed="3.65" length="3.23" shape="2365.17,2620.86 2364.31,2621.10 2363.60,2620.56 2363.04,2619.23"/>
    </edge>
    <edge id=":9727779405_2" function="internal">
        <lane id=":9727779405_2_0" index="0" allow="pedestrian passenger delivery bicycle" speed="5.56" length="6.63" shape="2361.54,2625.69 2363.04,2619.23"/>
    </edge>
    <edge id=":9727779405_3" function="internal">
        <lane id=":9727779405_3_0" index="0" allow="pedestrian passenger delivery bicycle" speed="3.65" length="1.44" shape="2361.54,2625.69 2362.63,2624.75"/>
    </edge>
    <edge id=":9727779405_5" function="internal">
        <lane id=":9727779405_5_0" index="0" allow="pedestrian passenger delivery bicycle" speed="3.65" length="3.23" shape="2362.63,2624.75 2363.51,2624.58 2364.17,2625.17 2364.62,2626.54"/>
    </edge>
    <edge id=":9727779405_w0" function="walkingarea">
        <lane id=":9727779405_w0_0" index="0" allow="pedestrian" speed="2.78" length="6.11" width="6.40" shape="2368.10,2625.93 2368.92,2622.01 2368.14,2621.67 2367.89,2621.39 2367.75,2621.04 2367.70,2620.63 2367.75,2620.14 2361.47,2618.93 2361.14,2619.71 2360.86,2619.95 2360.52,2620.09 2360.10,2620.13 2359.61,2620.07 2358.80,2623.99 2359.57,2624.32 2359.80,2624.58 2359.93,2624.90 2359.95,2625.29 2359.87,2625.74 2366.04,2627.44 2366.49,2626.46 2366.81,2626.14 2367.18,2625.95 2367.61,2625.88"/>
    </edge>
    <edge id=":9727779406_0" function="internal">