<?xml version="1.0" encoding="UTF-8"?>

<!-- generated on 2025-01-10 08:17:47 by Eclipse SUMO netconvert Version UNKNOWN
<netconvertConfiguration xmlns:xsi="http://www.w3.org/2001/XMLSchema-instance" xsi:noNamespaceSchemaLocation="http://sumo.dlr.de/xsd/netconvertConfiguration.xsd">

    <input>
        <node-files value="./SUMO_files/component_SUMO_files/iteration_1.nod.xml"/>
        <edge-files value="./SUMO_files/component_SUMO_files/iteration_1.edg.xml"/>
        <connection-files value="./SUMO_files/component_SUMO_files/iteration_1.con.xml"/>
        <tllogic-files value="./SUMO_files/component_SUMO_files/iteration_1.tll.xml"/>
        <type-files value="./SUMO_files/component_SUMO_files/iteration_1.typ.xml"/>
    </input>

    <output>
        <output-file value="./SUMO_files/network_iterations/network_iteration_1.net.xml"/>
        <output.street-names value="true"/>
    </output>

    <report>
        <log value="SUMO_files/netconvert_log.txt"/>
    </report>

</netconvertConfiguration>
-->

<net version="1.20" junctionCornerDetail="5" limitTurnSpeed="5.50" xmlns:xsi="http://www.w3.org/2001/XMLSchema-instance" xsi:noNamespaceSchemaLocation="http://sumo.dlr.de/xsd/net_file.xsd">

    <location netOffset="8987657.04,-4205692.93" convBoundary="0.00,0.00,917.27,219.84" origBoundary="-80.755739,35.288692,-80.708073,35.331715" projParameter="+proj=merc +a=6378137 +b=6378137 +lat_ts=0.0 +lon_0=0.0 +x_0=0.0 +y_0=0 +k=1.0 +units=m +nadgrids=@null +wktext +no_defs"/>

    <type id="highway.footway" priority="1" numLanes="1" speed="2.78" allow="pedestrian" oneway="1" width="2.00"/>
    <type id="highway.service" priority="1" numLanes="1" speed="5.56" allow="pedestrian delivery bicycle" oneway="1"/>
    <type id="highway.steps" priority="1" numLanes="1" speed="1.39" allow="pedestrian" oneway="1" width="2.00"/>
    <type id="highway.tertiary" priority="10" numLanes="1" speed="13.89" disallow="pedestrian tram rail_urban rail rail_electric rail_fast ship" oneway="1" sidewalkWidth="-1.00"/>

    <edge id=":10054309033_w0" function="walkingarea">
        <lane id=":10054309033_w0_0" index="0" allow="pedestrian" speed="2.78" length="4.98" width="2.00" shape="757.28,149.42 758.30,147.70 758.51,146.93 758.51,144.93 751.71,145.13 751.81,147.13 753.98,147.32 754.70,147.65 755.39,148.12 756.19,148.71"/>
    </edge>
    <edge id=":10054309034_w0" function="walkingarea">
        <lane id=":10054309034_w0_0" index="0" allow="pedestrian" speed="2.78" length="0.29" width="2.00" shape="776.03,160.58 777.03,158.84 776.79,158.71 775.77,160.43"/>
    </edge>
    <edge id=":10054309035_w0" function="walkingarea">
        <lane id=":10054309035_w0_0" index="0" allow="pedestrian" speed="2.78" length="0.29" width="2.00" shape="781.77,163.88 782.75,162.14 782.51,162.00 781.51,163.74"/>
    </edge>
    <edge id=":10054309038_w0" function="walkingarea">
        <lane id=":10054309038_w0_0" index="0" allow="pedestrian" speed="2.78" length="3.74" width="2.00" shape="785.41,163.61 784.44,165.36 785.15,165.93 785.38,166.28 785.52,166.67 785.59,167.10 785.57,167.58 787.55,167.82 787.77,166.59 787.94,166.17 788.20,165.81 788.59,165.43 789.14,164.98 787.90,163.41 787.10,163.85 786.69,163.93 786.27,163.92 785.84,163.81"/>
    </edge>
    <edge id=":10054309041_w0" function="walkingarea">
        <lane id=":10054309041_w0_0" index="0" allow="pedestrian" speed="2.78" length="3.73" width="2.00" shape="796.10,156.90 797.34,158.47 798.16,158.02 798.58,157.93 799.03,157.93 799.49,158.01 799.96,158.18 800.77,156.35 800.02,155.85 799.76,155.52 799.59,155.15 799.49,154.72 799.47,154.25 797.48,154.15 797.29,155.22 797.09,155.70 796.83,156.14 796.50,156.54"/>
    </edge>
    <edge id=":10054309045_w0" function="walkingarea">
        <lane id=":10054309045_w0_0" index="0" allow="pedestrian" speed="2.78" length="3.76" width="2.00" shape="811.28,161.01 810.47,162.84 811.22,163.34 811.48,163.67 811.66,164.05 811.76,164.47 811.78,164.95 813.78,165.03 813.89,163.76 814.03,163.32 814.26,162.93 814.62,162.50 815.12,161.99 813.72,160.57 812.97,161.08 812.58,161.20 812.16,161.23 811.73,161.17"/>
    </edge>
    <edge id=":10054309051_w0" function="walkingarea">
        <lane id=":10054309051_w0_0" index="0" allow="pedestrian" speed="2.78" length="4.21" width="2.00" shape="831.08,147.75 831.12,145.74 825.36,145.59 825.31,147.59 826.02,147.73 826.16,147.88 826.16,148.09 826.02,148.36 825.74,148.69 827.14,150.11 828.66,148.78 829.34,148.32 829.97,147.99 830.55,147.80"/>
    </edge>
    <edge id=":10054309101_w0" function="walkingarea">
        <lane id=":10054309101_w0_0" index="0" allow="pedestrian" speed="2.78" length="4.78" width="2.00" shape="888.85,170.73 890.31,169.37 888.80,167.72 888.26,167.15 887.70,166.60 887.01,165.96 886.04,165.11 884.73,166.63 885.36,167.56 885.57,168.23 885.71,169.05 885.78,170.00 885.79,171.09 887.79,171.13 887.92,170.42 888.07,170.28 888.28,170.29 888.53,170.44"/>
    </edge>
    <edge id=":10054309102_w0" function="walkingarea">
        <lane id=":10054309102_w0_0" index="0" allow="pedestrian" speed="2.78" length="3.86" width="2.00" shape="888.83,199.89 888.83,197.89 887.29,196.39 885.29,196.34 883.75,197.92 883.75,199.92 884.99,201.39 886.95,201.78"/>
    </edge>
    <edge id=":10054309103_w0" function="walkingarea">
        <lane id=":10054309103_w0_0" index="0" allow="pedestrian" speed="2.78" length="0.18" width="2.00" shape="888.46,199.87 888.39,197.87 888.19,197.89 888.19,199.89"/>
    </edge>
    <edge id=":10054309104_w0" function="walkingarea">
        <lane id=":10054309104_w0_0" index="0" allow="pedestrian" speed="2.78" length="0.26" width="2.00" shape="892.10,199.74 892.07,197.74 891.78,197.75 891.85,199.75"/>
    </edge>
    <edge id=":10054309105_w0" function="walkingarea">
        <lane id=":10054309105_w0_0" index="0" allow="pedestrian" speed="2.78" length="3.68" width="2.00" shape="901.99,195.75 900.04,196.17 900.04,196.98 899.89,197.27 899.65,197.48 899.30,197.61 898.85,197.65 898.87,199.65 900.52,201.13 902.52,201.23"/>
    </edge>
    <edge id=":10054309112_w0" function="walkingarea">
        <lane id=":10054309112_w0_0" index="0" allow="pedestrian" speed="2.78" length="5.31" width="2.00" shape="894.63,180.76 895.68,182.46 896.44,182.30 896.76,182.48 897.04,182.84 897.28,183.38 897.47,184.09 899.42,183.67 899.05,181.06 899.08,180.12 899.19,179.18 899.33,178.04 899.45,176.52 897.46,176.40 897.31,177.09 897.18,177.21 897.01,177.18 896.79,176.99 896.53,176.65 894.87,177.77 895.45,179.00 895.49,179.52 895.37,179.99 895.08,180.40"/>
    </edge>
    <edge id=":10054309115_w0" function="walkingarea">
        <lane id=":10054309115_w0_0" index="0" allow="pedestrian" speed="2.78" length="4.45" width="2.00" shape="887.51,183.64 885.51,183.60 885.40,189.00 887.40,189.03 887.68,188.03 888.01,187.53 888.48,187.04 889.07,186.55 889.79,186.06 888.75,184.36 888.04,184.63 887.80,184.57 887.63,184.39 887.53,184.08"/>
    </edge>
    <edge id=":172668791_0" function="internal">
        <lane id=":172668791_0_0" index="0" disallow="pedestrian tram rail_urban rail rail_electric rail_fast ship cable_car subway" speed="8.94" length="8.18" shape="115.20,61.42 115.33,63.80 115.81,65.40 116.33,67.01 116.56,69.39"/>
        <lane id=":172668791_0_1" index="1" disallow="pedestrian tram rail_urban rail rail_electric rail_fast ship cable_car subway" speed="8.94" length="8.18" shape="115.20,61.42 114.83,63.81 114.21,65.39 113.63,66.98 113.36,69.37"/>
    </edge>
    <edge id=":172668791_w0" function="walkingarea">
        <lane id=":172668791_w0_0" index="0" allow="pedestrian" speed="2.78" length="7.95" width="3.00" shape="118.16,69.41 121.16,69.43 119.80,61.67 116.80,61.51 116.83,63.20 117.06,64.44 117.41,65.45 117.77,66.46 118.06,67.70"/>
    </edge>
    <edge id=":7221608314_0" function="internal">
        <lane id=":7221608314_0_0" index="0" disallow="pedestrian tram rail_urban rail rail_electric rail_fast ship cable_car subway" speed="8.94" length="8.53" shape="107.42,213.65 106.82,211.21 105.66,209.71 104.51,208.21 103.92,205.77"/>
        <lane id=":7221608314_0_1" index="1" disallow="pedestrian tram rail_urban rail rail_electric rail_fast ship cable_car subway" speed="8.94" length="8.53" shape="107.42,213.65 107.12,205.66"/>
        <lane id=":7221608314_0_2" index="2" disallow="pedestrian tram rail_urban rail rail_electric rail_fast ship cable_car subway" speed="8.94" length="8.53" shape="107.42,213.65 107.82,211.17 108.85,209.60 109.90,208.02 110.31,205.54"/>
    </edge>
    <edge id=":9655154423_w0" function="walkingarea">
        <lane id=":9655154423_w0_0" index="0" allow="pedestrian" speed="2.78" length="4.37" width="2.00" shape="741.00,151.68 739.41,150.52 738.79,151.10 738.47,151.19 738.16,151.14 737.85,150.95 737.54,150.63 735.98,151.88 736.89,153.23 737.18,153.84 737.36,154.43 737.42,154.97 737.38,155.48 739.33,155.89 739.63,154.18 739.76,153.57 739.99,153.01 740.38,152.41"/>
    </edge>
    <edge id=":9655154520_w0" function="walkingarea">
        <lane id=":9655154520_w0_0" index="0" allow="pedestrian" speed="2.78" length="4.77" width="2.00" shape="740.50,145.65 740.59,147.65 741.30,147.74 741.45,147.88 741.46,148.08 741.33,148.35 741.06,148.68 742.52,150.05 743.73,148.62 744.20,148.12 744.73,147.75 745.44,147.51 746.43,147.40 746.34,145.40"/>
    </edge>
    <edge id=":9655154527_w0" function="walkingarea">
        <lane id=":9655154527_w0_0" index="0" allow="pedestrian" speed="2.78" length="4.75" width="2.00" shape="734.73,150.34 736.12,148.95 735.70,148.35 735.70,148.14 735.84,147.98 736.13,147.87 736.56,147.82 736.47,145.82 729.93,146.00 729.88,148.00 731.76,148.29 732.60,148.62 733.38,149.07 734.09,149.65"/>
    </edge>
    <edge id=":9655154530_w0" function="walkingarea">
        <lane id=":9655154530_w0_0" index="0" allow="pedestrian" speed="2.78" length="3.46" width="2.00" shape="649.53,147.65 651.53,147.53 651.64,146.68 651.83,146.39 652.11,146.18 652.47,146.06 652.93,146.03 652.98,144.03 647.91,144.02 647.93,146.02 648.77,146.20 649.08,146.42 649.31,146.74 649.46,147.15"/>
    </edge>
    <edge id=":9655154873_w0" function="walkingarea">
        <lane id=":9655154873_w0_0" index="0" allow="pedestrian" speed="2.78" length="1.02" width="2.00" shape="902.59,201.74 902.59,199.74 900.59,199.64"/>
    </edge>
    <edge id=":9655154879_w0" function="walkingarea">
        <lane id=":9655154879_w0_0" index="0" allow="pedestrian" speed="2.78" length="9.40" width="2.00" shape="904.16,199.76 904.13,201.76 913.52,201.91 913.56,199.91"/>
    </edge>
    <edge id=":9655154897_w0" function="walkingarea">
        <lane id=":9655154897_w0_0" index="0" allow="pedestrian" speed="2.78" length="1.42" width="2.00" shape="915.56,199.95 915.52,201.95 916.64,201.75 917.04,201.48 917.32,201.09 917.50,200.59 917.56,199.98 915.56,199.95"/>
    </edge>
    <edge id=":9658681335_w0" function="walkingarea">
        <lane id=":9658681335_w0_0" index="0" allow="pedestrian" speed="2.78" length="0.28" width="2.00" shape="918.27,149.58 916.27,149.60 916.27,149.85 918.27,149.88"/>
    </edge>
    <edge id=":9658681347_w0" function="walkingarea">
        <lane id=":9658681347_w0_0" index="0" allow="pedestrian" speed="2.78" length="3.53" width="2.00" shape="914.51,70.81 916.51,70.67 915.99,68.75 915.45,68.10 914.74,67.67 913.84,67.45 912.76,67.44 912.92,69.43 913.76,69.53 914.06,69.71 914.29,69.99 914.44,70.35"/>
    </edge>
    <edge id=":9658685906_w0" function="walkingarea">
        <lane id=":9658685906_w0_0" index="0" allow="pedestrian" speed="2.78" length="0.10" width="2.00" shape="915.27,82.20 917.27,82.18 917.27,82.06 915.27,82.20"/>
    </edge>
    <edge id=":9666242268_w0" function="walkingarea">
        <lane id=":9666242268_w0_0" index="0" allow="pedestrian" speed="2.78" length="3.53" width="2.00" shape="127.97,130.46 127.99,128.46 125.27,127.14 123.55,128.16 124.49,131.98 126.49,131.94 126.65,131.11 126.85,130.82 127.14,130.62 127.51,130.50"/>
    </edge>
    <edge id=":9666242290_w0" function="walkingarea">
        <lane id=":9666242290_w0_0" index="0" allow="pedestrian" speed="2.78" length="1.48" width="2.00" shape="125.36,219.62 125.36,217.62 122.36,217.61 122.36,219.61"/>
    </edge>
    <edge id=":9666242291_w0" function="walkingarea">
        <lane id=":9666242291_w0_0" index="0" allow="pedestrian" speed="2.78" length="2.86" width="2.00" shape="106.44,219.59 106.44,217.59 105.59,217.42 105.28,217.22 105.05,216.93 104.89,216.55 104.81,216.10 102.81,216.28 103.35,218.12 103.87,218.76 104.56,219.22 105.42,219.50"/>
    </edge>
    <edge id=":9666242292_w0" function="walkingarea">
        <lane id=":9666242292_w0_0" index="0" allow="pedestrian" speed="2.78" length="7.94" width="3.00" shape="111.56,217.59 111.56,219.59 122.76,219.61 122.76,217.61 121.85,216.10 118.85,216.10"/>
    </edge>
    <edge id=":9666242293_w0" function="walkingarea">
        <lane id=":9666242293_w0_0" index="0" allow="pedestrian" speed="2.78" length="5.12" width="2.00" shape="105.56,217.59 105.56,219.59 110.68,219.59 110.68,217.59"/>
    </edge>
    <edge id=":9666242294_w0" function="walkingarea">
        <lane id=":9666242294_w0_0" index="0" allow="pedestrian" speed="2.78" length="3.42" width="2.00" shape="127.23,216.14 125.23,216.12 123.72,217.62 123.72,219.62 125.12,221.90 127.12,222.00"/>
    </edge>
    <edge id=":9666274568_w0" function="walkingarea">
        <lane id=":9666274568_w0_0" index="0" allow="pedestrian" speed="2.78" length="4.43" width="2.00" shape="394.10,149.84 394.14,147.82 392.07,147.61 391.34,147.64 390.60,147.73 389.72,147.87 388.53,148.05 388.79,150.03 389.77,150.17 390.26,150.45 390.75,150.87 391.23,151.42 391.72,152.12 393.41,151.05 393.08,150.27 393.12,150.02 393.31,149.87 393.63,149.81"/>
    </edge>
    <edge id=":9666274574_w0" function="walkingarea">
        <lane id=":9666274574_w0_0" index="0" allow="pedestrian" speed="2.78" length="4.73" width="2.00" shape="404.27,143.06 404.05,145.05 404.18,145.83 405.01,147.65 407.42,146.49 408.29,146.12 409.20,145.89 410.31,145.77 411.81,145.78 411.88,143.78"/>
    </edge>
    <edge id=":9666274616_w0" function="walkingarea">
        <lane id=":9666274616_w0_0" index="0" allow="pedestrian" speed="2.78" length="1.55" width="2.00" shape="512.47,144.82 512.49,146.81 515.56,146.81 515.58,144.81 512.47,144.80 512.47,146.80 515.47,146.82 515.50,144.82"/>
    </edge>
    <edge id=":9666274634_w0" function="walkingarea">
        <lane id=":9666274634_w0_0" index="0" allow="pedestrian" speed="2.78" length="2.96" width="2.00" shape="459.20,152.27 457.82,150.82 455.68,152.91 457.10,154.32"/>
    </edge>
    <edge id=":9666274635_w0" function="walkingarea">
        <lane id=":9666274635_w0_0" index="0" allow="pedestrian" speed="2.78" length="4.24" width="2.00" shape="460.13,145.19 460.07,147.19 460.79,147.33 460.93,147.48 460.93,147.69 460.78,147.95 460.49,148.27 461.87,149.71 463.15,148.37 463.64,147.90 464.19,147.56 464.91,147.36 465.90,147.28 465.88,145.28"/>
    </edge>
    <edge id=":9666274693_w0" function="walkingarea">
        <lane id=":9666274693_w0_0" index="0" allow="pedestrian" speed="2.78" length="2.97" width="2.00" shape="127.44,185.33 125.44,185.37 125.45,188.31 127.45,188.33"/>
    </edge>
    <edge id=":9666274719_w0" function="walkingarea">
        <lane id=":9666274719_w0_0" index="0" allow="pedestrian" speed="2.78" length="8.16" width="2.00" shape="181.98,131.16 182.02,129.16 170.94,128.99 170.91,130.99 173.18,131.08 174.84,131.29 176.19,131.63 177.52,132.10 179.11,132.73 181.25,133.51 181.90,131.62"/>
    </edge>
    <edge id=":9666274721_w0" function="walkingarea">
        <lane id=":9666274721_w0_0" index="0" allow="pedestrian" speed="2.78" length="3.88" width="2.00" shape="274.38,129.35 274.43,127.36 269.06,127.30 269.05,129.29 269.80,129.44 269.98,129.62 270.04,129.87 269.97,130.19 269.77,130.58 271.48,131.62 272.42,130.35 272.91,129.90 273.39,129.59 273.89,129.40"/>
    </edge>
    <edge id=":9666274722_w0" function="walkingarea">
        <lane id=":9666274722_w0_0" index="0" allow="pedestrian" speed="2.78" length="4.05" width="2.00" shape="232.04,130.68 234.04,130.68 234.21,129.82 234.42,129.52 234.71,129.31 235.08,129.18 235.54,129.14 235.55,127.14 230.44,127.26 230.54,129.26 231.37,129.38 231.67,129.57 231.87,129.85 232.00,130.22"/>
    </edge>
    <edge id=":9666274728_w0" function="walkingarea">
        <lane id=":9666274728_w0_0" index="0" allow="pedestrian" speed="2.78" length="2.15" width="2.00" shape="357.88,154.65 357.56,152.67 354.63,153.17 355.02,155.13"/>
    </edge>
    <edge id=":9666274729_w0" function="walkingarea">
        <lane id=":9666274729_w0_0" index="0" allow="pedestrian" speed="2.78" length="2.95" width="2.00" shape="376.30,151.67 376.04,149.68 373.09,150.12 373.42,152.10"/>
    </edge>
    <edge id=":9666274737_w0" function="walkingarea">
        <lane id=":9666274737_w0_0" index="0" allow="pedestrian" speed="2.78" length="2.26" width="2.00" shape="349.51,143.34 351.32,142.50 350.27,140.15 348.39,140.84"/>
    </edge>
    <edge id=":9666274738_w0" function="walkingarea">
        <lane id=":9666274738_w0_0" index="0" allow="pedestrian" speed="2.78" length="0.25" width="2.00" shape="350.20,144.85 352.04,144.06 351.93,143.80 350.12,144.65"/>
    </edge>
    <edge id=":9666274742_w0" function="walkingarea">
        <lane id=":9666274742_w0_0" index="0" allow="pedestrian" speed="2.78" length="3.65" width="2.00" shape="356.37,154.86 355.97,152.90 354.21,151.59 352.25,151.95 352.23,152.79 352.07,153.09 351.82,153.32 351.47,153.48 351.02,153.57 351.20,155.56"/>
    </edge>
    <edge id=":9666274744_w0" function="walkingarea">
        <lane id=":9666274744_w0_0" index="0" allow="pedestrian" speed="2.78" length="3.51" width="2.00" shape="348.53,141.21 350.41,140.52 351.38,139.28 351.60,137.29 346.55,136.60 346.18,138.57"/>
    </edge>
    <edge id=":9666274798_w0" function="walkingarea">
        <lane id=":9666274798_w0_0" index="0" allow="pedestrian" speed="2.78" length="4.06" width="2.00" shape="420.84,147.70 422.84,147.64 422.98,146.81 423.18,146.52 423.47,146.32 423.84,146.21 424.29,146.18 424.35,144.18 419.36,144.03 419.29,146.02 420.13,146.23 420.43,146.47 420.65,146.79 420.79,147.20"/>
    </edge>
    <edge id=":9666274802_w0" function="walkingarea">
        <lane id=":9666274802_w0_0" index="0" allow="pedestrian" speed="2.78" length="4.58" width="2.00" shape="419.72,165.25 421.42,166.31 422.45,164.99 423.00,164.53 423.58,164.21 424.18,164.02 424.80,163.96 424.82,161.96 423.98,161.78 423.68,161.56 423.46,161.25 423.33,160.86 423.27,160.39 421.27,160.45 421.04,161.29 420.72,161.59 420.27,161.81 419.69,161.95 418.97,162.01 419.02,164.01 419.76,164.13 419.94,164.30 420.00,164.54 419.92,164.86"/>
    </edge>
    <edge id=":9666274808_w0" function="walkingarea">
        <lane id=":9666274808_w0_0" index="0" allow="pedestrian" speed="2.78" length="5.59" width="2.00" shape="421.24,159.45 423.24,159.39 423.37,158.27 423.56,157.88 423.84,157.60 424.21,157.44 424.67,157.40 424.72,155.40 423.81,155.21 423.49,154.99 423.26,154.68 423.11,154.30 423.05,153.83 421.05,153.89 420.57,154.76 419.95,155.08 419.08,155.34 417.95,155.53 416.56,155.65 416.68,157.65 419.18,157.74 420.06,157.97 420.70,158.34 421.09,158.83"/>
    </edge>
    <edge id=":9666274813_w0" function="walkingarea">
        <lane id=":9666274813_w0_0" index="0" allow="pedestrian" speed="2.78" length="5.78" width="2.00" shape="440.88,162.16 440.85,164.16 442.88,164.13 444.64,163.99 446.15,163.75 447.40,163.40 448.39,162.95 449.13,162.39 447.71,160.98 446.60,161.31 445.73,161.20 444.67,160.89 443.39,160.40 441.91,159.72 441.03,161.51"/>
    </edge>
    <edge id=":9666274886_w0" function="walkingarea">
        <lane id=":9666274886_w0_0" index="0" allow="pedestrian" speed="2.78" length="1.99" width="2.00" shape="534.79,145.01 534.77,147.01 537.77,147.02 537.75,145.02"/>
    </edge>
    <edge id=":9687148182_w0" function="walkingarea">
        <lane id=":9687148182_w0_0" index="0" allow="pedestrian" speed="2.78" length="3.62" width="2.00" shape="94.75,131.83 96.31,130.57 95.84,129.74 95.76,129.33 95.79,128.91 95.91,128.50 96.14,128.08 94.48,126.97 93.68,127.91 93.26,128.23 92.81,128.46 92.34,128.60 91.85,128.64 91.83,130.64 93.03,130.78 93.55,130.95 94.01,131.18 94.41,131.47"/>
    </edge>
    <edge id=":9687148197_w0" function="walkingarea">
        <lane id=":9687148197_w0_0" index="0" allow="pedestrian" speed="2.78" length="1.75" width="4.00" shape="124.25,129.34 125.97,128.33 125.08,124.55 123.08,124.55 121.58,126.05 121.58,128.05"/>
    </edge>
    <edge id=":9687148198_w0" function="walkingarea">
        <lane id=":9687148198_w0_0" index="0" allow="pedestrian" speed="2.78" length="1.17" width="4.00" shape="126.61,105.23 125.52,103.55 121.95,104.40 121.85,106.40 123.35,107.98 125.35,107.98"/>
    </edge>
    <edge id=":9687148199_w0" function="walkingarea">
        <lane id=":9687148199_w0_0" index="0" allow="pedestrian" speed="2.78" length="1.68" width="4.00" shape="101.72,106.63 101.42,104.65 99.72,103.39 97.74,103.69 97.81,108.19 99.80,108.39"/>
    </edge>
    <edge id=":9687148200_w0" function="walkingarea">
        <lane id=":9687148200_w0_0" index="0" allow="pedestrian" speed="2.78" length="2.10" width="4.00" shape="98.67,127.56 98.67,125.56 97.47,124.09 95.52,123.68 93.99,127.69 95.66,128.81"/>
    </edge>
    <edge id=":9687148211_w0" function="walkingarea">
        <lane id=":9687148211_w0_0" index="0" allow="pedestrian" speed="2.78" length="3.47" width="2.00" shape="99.80,100.66 97.81,100.47 97.55,101.33 97.29,101.65 96.95,101.91 96.52,102.09 96.01,102.21 96.30,104.19 98.01,105.46 99.98,105.16"/>
    </edge>
    <edge id=":9687148317_w0" function="walkingarea">
        <lane id=":9687148317_w0_0" index="0" allow="pedestrian" speed="2.78" length="2.54" width="2.00" shape="98.41,144.61 96.41,144.60 96.40,145.58 96.41,145.92 96.43,146.26 96.46,146.67 96.51,147.23 98.50,147.05 98.43,146.15 98.41,145.83 98.40,145.52 98.40,145.13"/>
    </edge>
    <edge id=":9687187495_w0" function="walkingarea">
        <lane id=":9687187495_w0_0" index="0" allow="pedestrian" speed="2.78" length="1.65" width="2.00" shape="123.09,35.56 123.09,33.56 120.09,33.55 120.09,35.55"/>
    </edge>
    <edge id=":9687187500_0" function="internal">
        <lane id=":9687187500_0_0" index="0" disallow="pedestrian tram rail_urban rail rail_electric rail_fast ship cable_car subway" speed="8.94" length="5.04" shape="116.50,31.98 116.46,37.02"/>
    </edge>
    <edge id=":9687187500_c0" function="crossing" crossingEdges="1078803477#4.109">
        <lane id=":9687187500_c0_0" index="0" allow="pedestrian" speed="2.78" length="3.20" width="4.00" shape="114.88,34.49 118.08,34.51" outlineShape="114.80,32.48 118.20,32.51 118.06,36.51 114.86,36.49 114.90,32.49 113.39,33.45 113.35,35.45 113.49,35.55"/>
    </edge>
    <edge id=":9687187500_w0" function="walkingarea">
        <lane id=":9687187500_w0_0" index="0" allow="pedestrian" speed="2.78" length="3.35" width="4.00" shape="118.06,37.02 121.06,37.06 121.24,35.55 121.24,33.55 121.10,32.01 118.10,31.99 118.10,32.51 118.06,36.51"/>
    </edge>
    <edge id=":9687187500_w1" function="walkingarea">
        <lane id=":9687187500_w1_0" index="0" allow="pedestrian" speed="2.78" length="1.51" width="4.00" shape="114.86,36.49 114.90,32.49 113.39,33.45 113.35,35.45"/>
    </edge>
    <edge id=":9687187501_0" function="internal">
        <lane id=":9687187501_0_0" index="0" disallow="pedestrian tram rail_urban rail rail_electric rail_fast ship cable_car subway" speed="8.94" length="5.13" shape="108.63,36.94 108.90,31.82"/>
    </edge>
    <edge id=":9687187501_c0" function="crossing" crossingEdges="773672649#2">
        <lane id=":9687187501_c0_0" index="0" allow="pedestrian" speed="2.78" length="3.20" width="4.00" shape="107.16,34.29 110.36,34.47" outlineShape="107.27,32.29 110.47,32.47 110.24,36.47 107.05,36.29"/>
    </edge>
    <edge id=":9687187501_w0" function="walkingarea">
        <lane id=":9687187501_w0_0" index="0" allow="pedestrian" speed="2.78" length="1.54" width="4.00" shape="111.87,35.42 111.91,33.42 110.47,32.47 110.24,36.47"/>
    </edge>
    <edge id=":9687187501_w1" function="walkingarea">
        <lane id=":9687187501_w1_0" index="0" allow="pedestrian" speed="2.78" length="1.52" width="4.00" shape="107.05,36.29 107.27,32.29 105.66,33.33 105.62,35.33"/>
    </edge>
    <edge id=":9687187513_w0" function="walkingarea">
        <lane id=":9687187513_w0_0" index="0" allow="pedestrian" speed="2.78" length="4.02" width="2.00" shape="100.59,1.45 100.62,-0.55 95.62,-0.63 95.59,1.37 96.42,1.55 96.71,1.76 96.91,2.06 97.03,2.44 97.06,2.89 99.06,2.93 99.24,2.10 99.46,1.81 99.75,1.60 100.13,1.49"/>
    </edge>
    <edge id=":9687187518_w0" function="walkingarea">
        <lane id=":9687187518_w0_0" index="0" allow="pedestrian" speed="2.78" length="4.28" width="2.00" shape="96.38,71.76 98.49,71.58 97.99,70.42 98.00,69.29 98.10,68.08 98.21,67.00 98.25,66.26 96.25,66.29 96.10,67.12 95.90,67.41 95.61,67.61 95.24,67.73 94.78,67.76 94.74,69.76 95.63,70.00 95.94,70.28 96.17,70.66 96.32,71.16"/>
    </edge>
    <edge id=":9687187522_w0" function="walkingarea">
        <lane id=":9687187522_w0_0" index="0" allow="pedestrian" speed="2.78" length="4.04" width="2.00" shape="100.18,75.07 102.17,75.26 102.50,70.15 100.50,70.08 100.29,70.91 100.06,71.21 99.73,71.41 99.32,71.54 98.82,71.58 98.82,73.58 99.64,73.75 99.91,73.95 100.09,74.24 100.18,74.62"/>
    </edge>
    <edge id=":9687187524_w0" function="walkingarea">
        <lane id=":9687187524_w0_0" index="0" allow="pedestrian" speed="2.78" length="4.09" width="2.00" shape="98.40,52.08 96.42,51.79 96.15,53.74 96.09,54.43 96.06,55.12 96.06,55.96 96.08,57.10 98.08,57.06 98.24,56.23 98.47,55.93 98.78,55.73 99.19,55.60 99.69,55.56 99.69,53.56 98.88,53.40 98.61,53.19 98.45,52.90 98.38,52.53"/>
    </edge>
    <edge id=":9687187526_w0" function="walkingarea">
        <lane id=":9687187526_w0_0" index="0" allow="pedestrian" speed="2.78" length="4.02" width="2.00" shape="102.47,35.28 102.50,33.28 101.67,33.10 101.38,32.89 101.18,32.59 101.06,32.22 101.03,31.76 99.03,31.72 98.99,33.48 98.95,34.10 98.89,34.71 98.79,35.45 98.65,36.45 100.63,36.74 100.93,35.92 101.20,35.63 101.54,35.43 101.97,35.31"/>
    </edge>
    <edge id=":9727779401_0" function="internal">
        <lane id=":9727779401_0_0" index="0" allow="pedestrian passenger delivery bicycle" speed="3.65" length="4.67" shape="310.69,57.42 309.48,56.63 309.07,55.84 309.46,55.03 310.65,54.22"/>
    </edge>
    <edge id=":9727779405_0" function="internal">
        <lane id=":9727779405_0_0" index="0" allow="pedestrian passenger delivery bicycle" speed="5.56" length="5.22" shape="335.25,110.70 334.96,112.22 334.74,113.26 334.48,114.29 334.06,115.78"/>
    </edge>
    <edge id=":9727779405_1" function="internal">
        <lane id=":9727779405_1_0" index="0" allow="pedestrian passenger delivery bicycle" speed="3.65" length="1.44" shape="335.25,110.70 334.24,111.72"/>
    </edge>
    <edge id=":9727779405_4" function="internal">
        <lane id=":9727779405_4_0" index="0" allow="pedestrian passenger delivery bicycle" speed="3.65" length="3.23" shape="334.24,111.72 333.38,111.96 332.67,111.42 332.11,110.09"/>
    </edge>
    <edge id=":9727779405_2" function="internal">
        <lane id=":9727779405_2_0" index="0" allow="pedestrian passenger delivery bicycle" speed="5.56" length="4.94" shape="330.99,114.91 332.11,110.09"/>
    </edge>
    <edge id=":9727779405_3" function="internal">
        <lane id=":9727779405_3_0" index="0" allow="pedestrian passenger delivery bicycle" speed="3.65" length="1.44" shape="330.99,114.91 332.09,113.97"/>
    </edge>
    <edge id=":9727779405_5" function="internal">
        <lane id=":9727779405_5_0" index="0" allow="pedestrian passenger delivery bicycle" speed="3.65" length="3.23" shape="332.09,113.97 332.96,113.81 333.62,114.41 334.06,115.78"/>
    </edge>
    <edge id=":9727779405_w0" function="walkingarea">
        <lane id=":9727779405_w0_0" index="0" allow="pedestrian" speed="2.78" length="5.38" width="6.40" shape="337.66,114.70 338.01,112.73 337.23,112.42 336.98,112.17 336.83,111.85 336.78,111.46 336.82,111.00 330.54,109.78 330.21,110.56 329.95,110.81 329.61,110.95 329.21,111.00 328.74,110.94 328.34,112.90 329.11,113.23 329.34,113.49 329.47,113.81 329.49,114.20 329.40,114.65 335.55,116.40 336.03,115.34 336.36,114.99 336.74,114.77 337.17,114.67"/>
    </edge>
    <edge id=":9727779406_0" function="internal">
        <lane id=":9727779406_0_0" index="0" disallow="pedestrian tram rail_urban rail rail_electric rail_fast ship cable_car subway" speed="8.94" length="14.70" shape="337.80,125.38 323.31,122.91"/>
    </edge>
    <edge id=":9727779406_1" function="internal">
        <lane id=":9727779406_1_0" index="0" allow="passenger delivery bicycle" speed="7.25" length="4.46" shape="337.80,125.38 333.84,124.24 333.58,124.02"/>
    </edge>
    <edge id=":9727779406_7" function="internal">
        <lane id=":9727779406_7_0" index="0" allow="passenger delivery bicycle" speed="7.25" length="10.15" shape="333.58,124.02 331.37,122.15 330.41,119.09 330.94,115.09"/>
    </edge>
    <edge id=":9727779406_2" function="internal">
        <lane id=":9727779406_2_0" index="0" allow="passenger delivery bicycle" speed="6.19" length="8.93" shape="334.02,115.93 333.70,118.37 334.29,120.23 335.81,121.51 338.24,122.21"/>
    </edge>
    <edge id=":9727779406_3" function="internal">
        <lane id=":9727779406_3_0" index="0" allow="passenger delivery bicycle" speed="7.25" length="14.34" shape="334.02,115.93 332.42,119.62 330.10,122.01 327.07,123.11 323.31,122.91"/>
    </edge>
    <edge id=":9727779406_4" function="internal">
        <lane id=":9727779406_4_0" index="0" allow="pedestrian passenger delivery bicycle" speed="3.65" length="4.67" shape="334.02,115.93 332.93,116.87 332.06,117.05 331.39,116.45 330.94,115.09"/>
    </edge>
    <edge id=":9727779406_5" function="internal">